C49527-P99
     RDKit          3D

 43 44  0  0  0  0  0  0  0  0999 V2000
  -10.6366    2.3002   11.1130 C   0  0  0  0  0  0  0  0  0  0  0  0
   -9.2260    2.9460   11.0285 C   0  0  0  0  0  0  0  0  0  0  0  0
   -9.0322    3.1094    9.4853 C   0  0  0  0  0  0  0  0  0  0  0  0
   -9.3083    4.3362   11.6618 C   0  0  0  0  0  0  0  0  0  0  0  0
   -8.9894    5.3958   11.1406 O   0  0  0  0  0  0  0  0  0  0  0  0
   -9.8036    4.3464   12.9189 O   0  0  0  0  0  0  0  0  0  0  0  0
   -8.1162    2.1469   11.6742 N   0  0  0  0  0  0  0  0  0  0  0  0
   -7.3524    0.8793   11.1339 C   0  0  0  0  0  0  0  0  0  0  0  0
   -6.5886    0.4030   12.2886 C   0  0  0  0  0  0  0  0  0  0  0  0
   -6.6089    1.3107   13.6806 C   0  0  0  0  0  0  0  0  0  0  0  0
   -5.8533    0.8585   15.3450 N   0  0  0  0  0  0  0  0  0  0  0  0
   -5.8141    1.8745   17.0810 C   0  0  0  0  0  0  0  0  0  0  0  0
   -6.2084    3.0348   17.3373 O   0  0  0  0  0  0  0  0  0  0  0  0
   -5.4230    1.2903   18.2054 C   0  0  0  0  0  0  0  0  0  0  0  0
   -5.3724    2.6487   19.4943 C   0  0  0  0  0  0  0  0  0  0  0  0
   -5.3957    4.2536   19.3250 C   0  0  0  0  0  0  0  0  0  0  0  0
   -4.2724    5.0713   19.9680 C   0  0  0  0  0  0  0  0  0  0  0  0
   -4.1543    4.8074   21.4438 C   0  0  0  0  0  0  0  0  0  0  0  0
   -4.1077    3.3319   21.7690 C   0  0  0  0  0  0  0  0  0  0  0  0
   -4.7657    2.3261   20.8542 N   0  0  0  0  0  0  0  0  0  0  0  0
   -7.3938    2.4312   13.1736 N   0  0  0  0  0  0  0  0  0  0  0  0
  -11.0705    2.3010   12.1157 H   0  0  0  0  0  0  0  0  0  0  0  0
  -10.6291    1.2751   10.7272 H   0  0  0  0  0  0  0  0  0  0  0  0
  -11.3622    2.8648   10.5122 H   0  0  0  0  0  0  0  0  0  0  0  0
   -9.9147    3.5737    9.0255 H   0  0  0  0  0  0  0  0  0  0  0  0
   -8.8810    2.1425    8.9936 H   0  0  0  0  0  0  0  0  0  0  0  0
   -8.2071    3.7683    9.2046 H   0  0  0  0  0  0  0  0  0  0  0  0
   -9.5455    5.2297   13.2631 H   0  0  0  0  0  0  0  0  0  0  0  0
   -7.6060    0.5243   10.1448 H   0  0  0  0  0  0  0  0  0  0  0  0
   -6.0673   -0.5024   12.2412 H   0  0  0  0  0  0  0  0  0  0  0  0
   -5.5534   -0.0611   15.4646 H   0  0  0  0  0  0  0  0  0  0  0  0
   -6.2328    0.6651   18.5345 H   0  0  0  0  0  0  0  0  0  0  0  0
   -4.5649    1.0265   17.5693 H   0  0  0  0  0  0  0  0  0  0  0  0
   -6.4530    2.5014   19.6709 H   0  0  0  0  0  0  0  0  0  0  0  0
   -5.4702    4.6434   18.3131 H   0  0  0  0  0  0  0  0  0  0  0  0
   -6.3348    4.6123   19.7719 H   0  0  0  0  0  0  0  0  0  0  0  0
   -4.4928    6.1374   19.8242 H   0  0  0  0  0  0  0  0  0  0  0  0
   -3.3197    4.9125   19.4570 H   0  0  0  0  0  0  0  0  0  0  0  0
   -3.2607    5.3050   21.8384 H   0  0  0  0  0  0  0  0  0  0  0  0
   -5.0067    5.2743   21.9523 H   0  0  0  0  0  0  0  0  0  0  0  0
   -3.0969    3.0163   22.0422 H   0  0  0  0  0  0  0  0  0  0  0  0
   -4.5367    3.2367   22.7713 H   0  0  0  0  0  0  0  0  0  0  0  0
   -5.6321    2.1987   21.3855 H   0  0  0  0  0  0  0  0  0  0  0  0
  1  2  1  0
  2  3  1  0
  2  4  1  0
  4  5  2  0
  4  6  1  0
  2  7  1  0
  7  8  1  0
  8  9  2  0
  9 10  1  0
 10 11  1  0
 11 12  1  0
 12 13  2  0
 12 14  1  0
 14 15  1  0
 15 16  1  0
 16 17  1  0
 17 18  1  0
 18 19  1  0
 19 20  1  0
 10 21  2  0
 21  7  1  0
 20 15  1  0
  1 22  1  0
  1 23  1  0
  1 24  1  0
  3 25  1  0
  3 26  1  0
  3 27  1  0
  6 28  1  0
  8 29  1  0
  9 30  1  0
 11 31  1  0
 14 32  1  0
 14 33  1  0
 15 34  1  0
 16 35  1  0
 16 36  1  0
 17 37  1  0
 17 38  1  0
 18 39  1  0
 18 40  1  0
 19 41  1  0
 19 42  1  0
 20 43  1  0
M  END
>  <Energy>  (1) 
396.82730636485661

>  <compound_id>  (1) 
49527

>  <target_id>  (1) 
1

>  <reference_id>  (1) 
99

>  <inspiration_ids>  (1) 
[99, 70]

>  <energy_score>  (1) 
376.91192755753275

>  <distance_score>  (1) 
7.764986097310167

>  <path>  (1) 
/opt/xchem-fragalysis-2/maxwin/BulkDock/SCRATCH/511022/C49527-P99/C49527-P99.minimised.mol

>  <scratch_subdir>  (1) 
/opt/xchem-fragalysis-2/maxwin/BulkDock/SCRATCH/511022/C49527-P99

>  <fragmenstein_runtime>  (1) 
16.94529414176941

>  <fragmenstein_outcome>  (1) 
too moved

>  <fragmenstein_mode>  (1) 
expansion

>  <fragmenstein_error>  (1) 


$$$$
C49527-P70
     RDKit          3D

 43 44  0  0  0  0  0  0  0  0999 V2000
  -11.4873    4.5046   13.5457 C   0  0  0  0  0  0  0  0  0  0  0  0
  -10.6623    5.4678   12.6608 C   0  0  0  0  0  0  0  0  0  0  0  0
  -10.3345    4.7126   11.3591 C   0  0  0  0  0  0  0  0  0  0  0  0
  -11.5289    6.6713   12.3022 C   0  0  0  0  0  0  0  0  0  0  0  0
  -12.7058    6.8416   12.5890 O   0  0  0  0  0  0  0  0  0  0  0  0
  -10.9055    7.5958   11.5373 O   0  0  0  0  0  0  0  0  0  0  0  0
   -9.4674    5.9365   13.3757 N   0  0  0  0  0  0  0  0  0  0  0  0
   -8.2574    6.3095   12.8585 C   0  0  0  0  0  0  0  0  0  0  0  0
   -7.5055    6.7561   13.9236 C   0  0  0  0  0  0  0  0  0  0  0  0
   -8.3362    6.6354   15.0603 C   0  0  0  0  0  0  0  0  0  0  0  0
   -8.0437    6.8383   16.3912 N   0  0  0  0  0  0  0  0  0  0  0  0
   -6.7810    7.1519   17.0583 C   0  0  0  0  0  0  0  0  0  0  0  0
   -5.6941    7.3910   16.6065 O   0  0  0  0  0  0  0  0  0  0  0  0
   -6.9983    7.0850   18.5979 C   0  0  0  0  0  0  0  0  0  0  0  0
   -5.7235    7.0363   19.5044 C   0  0  0  0  0  0  0  0  0  0  0  0
   -4.9986    5.6837   19.4125 C   0  0  0  0  0  0  0  0  0  0  0  0
   -3.8606    5.5074   20.4271 C   0  0  0  0  0  0  0  0  0  0  0  0
   -3.7779    6.6277   21.4450 C   0  0  0  0  0  0  0  0  0  0  0  0
   -5.1641    6.9791   21.9480 C   0  0  0  0  0  0  0  0  0  0  0  0
   -6.1370    7.3188   20.9030 N   0  0  0  0  0  0  0  0  0  0  0  0
   -9.5407    6.1592   14.7123 N   0  0  0  0  0  0  0  0  0  0  0  0
  -12.3545    4.1106   13.0022 H   0  0  0  0  0  0  0  0  0  0  0  0
  -10.8839    3.6525   13.8768 H   0  0  0  0  0  0  0  0  0  0  0  0
  -11.8780    5.0027   14.4410 H   0  0  0  0  0  0  0  0  0  0  0  0
   -9.7592    3.8049   11.5640 H   0  0  0  0  0  0  0  0  0  0  0  0
   -9.7639    5.3241   10.6519 H   0  0  0  0  0  0  0  0  0  0  0  0
  -11.2522    4.4121   10.8389 H   0  0  0  0  0  0  0  0  0  0  0  0
  -11.5738    8.3041   11.4240 H   0  0  0  0  0  0  0  0  0  0  0  0
   -8.0255    6.2425   11.8061 H   0  0  0  0  0  0  0  0  0  0  0  0
   -6.4794    7.0932   13.9026 H   0  0  0  0  0  0  0  0  0  0  0  0
   -8.7370    6.6118   17.0859 H   0  0  0  0  0  0  0  0  0  0  0  0
   -7.6251    6.2136   18.8284 H   0  0  0  0  0  0  0  0  0  0  0  0
   -7.5783    7.9839   18.8477 H   0  0  0  0  0  0  0  0  0  0  0  0
   -5.0336    7.8270   19.1828 H   0  0  0  0  0  0  0  0  0  0  0  0
   -5.7190    4.8682   19.5375 H   0  0  0  0  0  0  0  0  0  0  0  0
   -4.5913    5.5542   18.4023 H   0  0  0  0  0  0  0  0  0  0  0  0
   -4.0061    4.5574   20.9537 H   0  0  0  0  0  0  0  0  0  0  0  0
   -2.9024    5.4355   19.9003 H   0  0  0  0  0  0  0  0  0  0  0  0
   -3.3145    7.5107   20.9875 H   0  0  0  0  0  0  0  0  0  0  0  0
   -3.1333    6.3297   22.2796 H   0  0  0  0  0  0  0  0  0  0  0  0
   -5.0925    7.8177   22.6503 H   0  0  0  0  0  0  0  0  0  0  0  0
   -5.5582    6.1364   22.5235 H   0  0  0  0  0  0  0  0  0  0  0  0
   -6.3703    8.3094   20.9727 H   0  0  0  0  0  0  0  0  0  0  0  0
  1  2  1  0
  2  3  1  0
  2  4  1  0
  4  5  2  0
  4  6  1  0
  2  7  1  0
  7  8  1  0
  8  9  2  0
  9 10  1  0
 10 11  1  0
 11 12  1  0
 12 13  2  0
 12 14  1  0
 14 15  1  0
 15 16  1  0
 16 17  1  0
 17 18  1  0
 18 19  1  0
 19 20  1  0
 10 21  2  0
 21  7  1  0
 20 15  1  0
  1 22  1  0
  1 23  1  0
  1 24  1  0
  3 25  1  0
  3 26  1  0
  3 27  1  0
  6 28  1  0
  8 29  1  0
  9 30  1  0
 11 31  1  0
 14 32  1  0
 14 33  1  0
 15 34  1  0
 16 35  1  0
 16 36  1  0
 17 37  1  0
 17 38  1  0
 18 39  1  0
 18 40  1  0
 19 41  1  0
 19 42  1  0
 20 43  1  0
M  END
>  <Energy>  (2) 
-27.315441671356034

>  <compound_id>  (2) 
49527

>  <target_id>  (2) 
1

>  <reference_id>  (2) 
70

>  <inspiration_ids>  (2) 
[99, 70]

>  <energy_score>  (2) 
-47.23082047868047

>  <distance_score>  (2) 
10.210221041689048

>  <path>  (2) 
/opt/xchem-fragalysis-2/maxwin/BulkDock/SCRATCH/511022/C49527-P70/C49527-P70.minimised.mol

>  <scratch_subdir>  (2) 
/opt/xchem-fragalysis-2/maxwin/BulkDock/SCRATCH/511022/C49527-P70

>  <fragmenstein_runtime>  (2) 
13.516483306884766

>  <fragmenstein_outcome>  (2) 
too moved

>  <fragmenstein_mode>  (2) 
expansion

>  <fragmenstein_error>  (2) 


$$$$
C49528-P99
     RDKit          3D

 41 42  0  0  0  0  0  0  0  0999 V2000
    3.0064    2.3146   13.1889 C   0  0  0  0  0  0  0  0  0  0  0  0
    1.8037    1.3809   13.4277 C   0  0  0  0  0  0  0  0  0  0  0  0
    1.0843    1.1800   12.0817 C   0  0  0  0  0  0  0  0  0  0  0  0
    2.2512   -0.0099   13.8838 C   0  0  0  0  0  0  0  0  0  0  0  0
    1.5746   -1.0303   13.8546 O   0  0  0  0  0  0  0  0  0  0  0  0
    3.5279   -0.0904   14.3158 O   0  0  0  0  0  0  0  0  0  0  0  0
    0.9310    1.9857   14.4478 N   0  0  0  0  0  0  0  0  0  0  0  0
   -0.0754    2.8971   14.2611 C   0  0  0  0  0  0  0  0  0  0  0  0
   -0.2790    3.4763   15.4968 C   0  0  0  0  0  0  0  0  0  0  0  0
    0.5895    2.8134   16.3937 C   0  0  0  0  0  0  0  0  0  0  0  0
    0.8375    3.0738   17.7212 N   0  0  0  0  0  0  0  0  0  0  0  0
    0.3978    4.1607   18.5765 C   0  0  0  0  0  0  0  0  0  0  0  0
   -0.3597    5.0679   18.3636 O   0  0  0  0  0  0  0  0  0  0  0  0
    1.1448    4.1448   19.9461 C   0  0  0  0  0  0  0  0  0  0  0  0
    0.2874    4.0790   21.2482 C   0  0  0  0  0  0  0  0  0  0  0  0
   -0.6760    5.2675   21.4429 C   0  0  0  0  0  0  0  0  0  0  0  0
   -1.8422    5.0394   22.8528 S   0  0  0  0  0  0  0  0  0  0  0  0
   -0.8665    3.8961   23.8765 C   0  0  0  0  0  0  0  0  0  0  0  0
    0.6262    4.1790   23.7317 C   0  0  0  0  0  0  0  0  0  0  0  0
    1.2037    3.8997   22.4083 N   0  0  0  0  0  0  0  0  0  0  0  0
    1.2635    1.8516   15.7548 N   0  0  0  0  0  0  0  0  0  0  0  0
    2.6828    3.2903   12.8073 H   0  0  0  0  0  0  0  0  0  0  0  0
    3.7052    1.8853   12.4615 H   0  0  0  0  0  0  0  0  0  0  0  0
    3.5665    2.5005   14.1131 H   0  0  0  0  0  0  0  0  0  0  0  0
    0.1628    0.6005   12.2042 H   0  0  0  0  0  0  0  0  0  0  0  0
    1.7182    0.6343   11.3724 H   0  0  0  0  0  0  0  0  0  0  0  0
    0.8221    2.1361   11.6159 H   0  0  0  0  0  0  0  0  0  0  0  0
    3.6035   -1.0061   14.6578 H   0  0  0  0  0  0  0  0  0  0  0  0
   -0.4886    3.1279   13.2903 H   0  0  0  0  0  0  0  0  0  0  0  0
   -0.9190    4.3162   15.7210 H   0  0  0  0  0  0  0  0  0  0  0  0
    1.5458    2.5374   18.2053 H   0  0  0  0  0  0  0  0  0  0  0  0
    1.7531    5.0600   19.9616 H   0  0  0  0  0  0  0  0  0  0  0  0
    1.8655    3.3186   19.9619 H   0  0  0  0  0  0  0  0  0  0  0  0
   -0.3071    3.1680   21.1862 H   0  0  0  0  0  0  0  0  0  0  0  0
   -0.1168    6.1952   21.6073 H   0  0  0  0  0  0  0  0  0  0  0  0
   -1.3045    5.4178   20.5628 H   0  0  0  0  0  0  0  0  0  0  0  0
   -1.1748    4.0246   24.9189 H   0  0  0  0  0  0  0  0  0  0  0  0
   -1.1046    2.8671   23.5883 H   0  0  0  0  0  0  0  0  0  0  0  0
    1.1715    3.5672   24.4595 H   0  0  0  0  0  0  0  0  0  0  0  0
    0.8323    5.2237   23.9988 H   0  0  0  0  0  0  0  0  0  0  0  0
    2.0430    4.4683   22.2905 H   0  0  0  0  0  0  0  0  0  0  0  0
  1  2  1  0
  2  3  1  0
  2  4  1  0
  4  5  2  0
  4  6  1  0
  2  7  1  0
  7  8  1  0
  8  9  2  0
  9 10  1  0
 10 11  1  0
 11 12  1  0
 12 13  2  0
 12 14  1  0
 14 15  1  0
 15 16  1  0
 16 17  1  0
 17 18  1  0
 18 19  1  0
 19 20  1  0
 10 21  2  0
 21  7  1  0
 20 15  1  0
  1 22  1  0
  1 23  1  0
  1 24  1  0
  3 25  1  0
  3 26  1  0
  3 27  1  0
  6 28  1  0
  8 29  1  0
  9 30  1  0
 11 31  1  0
 14 32  1  0
 14 33  1  0
 15 34  1  0
 16 35  1  0
 16 36  1  0
 18 37  1  0
 18 38  1  0
 19 39  1  0
 19 40  1  0
 20 41  1  0
M  END
>  <Energy>  (3) 
19.702808230787642

>  <compound_id>  (3) 
49528

>  <target_id>  (3) 
1

>  <reference_id>  (3) 
99

>  <inspiration_ids>  (3) 
[99, 70]

>  <energy_score>  (3) 
-52.22359820597711

>  <distance_score>  (3) 
9.217491450279155

>  <path>  (3) 
/opt/xchem-fragalysis-2/maxwin/BulkDock/SCRATCH/511022/C49528-P99/C49528-P99.minimised.mol

>  <scratch_subdir>  (3) 
/opt/xchem-fragalysis-2/maxwin/BulkDock/SCRATCH/511022/C49528-P99

>  <fragmenstein_runtime>  (3) 
16.887789487838745

>  <fragmenstein_outcome>  (3) 
too moved

>  <fragmenstein_mode>  (3) 
expansion

>  <fragmenstein_error>  (3) 


$$$$
C49528-P70
     RDKit          3D

 41 42  0  0  0  0  0  0  0  0999 V2000
   -6.7369    0.2191    9.4836 C   0  0  0  0  0  0  0  0  0  0  0  0
   -7.5141    1.0785   10.5943 C   0  0  0  0  0  0  0  0  0  0  0  0
   -9.0302    0.6150   10.5389 C   0  0  0  0  0  0  0  0  0  0  0  0
   -7.7231    2.3322    9.5222 C   0  0  0  0  0  0  0  0  0  0  0  0
   -6.9509    2.6956    8.6373 O   0  0  0  0  0  0  0  0  0  0  0  0
   -8.9056    2.9979    9.5921 O   0  0  0  0  0  0  0  0  0  0  0  0
   -6.5573    1.0907   12.2103 N   0  0  0  0  0  0  0  0  0  0  0  0
   -6.0970   -0.0039   12.6917 C   0  0  0  0  0  0  0  0  0  0  0  0
   -6.0542   -0.2487   14.1324 C   0  0  0  0  0  0  0  0  0  0  0  0
   -5.8966    0.9701   14.7950 C   0  0  0  0  0  0  0  0  0  0  0  0
   -5.2331    1.3755   16.6072 N   0  0  0  0  0  0  0  0  0  0  0  0
   -5.7346    2.6519   17.8289 C   0  0  0  0  0  0  0  0  0  0  0  0
   -6.5424    3.5567   17.6908 O   0  0  0  0  0  0  0  0  0  0  0  0
   -5.0993    2.7431   19.2581 C   0  0  0  0  0  0  0  0  0  0  0  0
   -4.6958    4.3293   20.0069 C   0  0  0  0  0  0  0  0  0  0  0  0
   -4.2706    4.2163   21.5586 C   0  0  0  0  0  0  0  0  0  0  0  0
   -2.7463    4.8629   22.3624 S   0  0  0  0  0  0  0  0  0  0  0  0
   -2.2615    6.0673   21.1149 C   0  0  0  0  0  0  0  0  0  0  0  0
   -3.4001    6.4342   20.1677 C   0  0  0  0  0  0  0  0  0  0  0  0
   -3.8269    5.3152   19.3185 N   0  0  0  0  0  0  0  0  0  0  0  0
   -6.6521    1.8522   13.6812 N   0  0  0  0  0  0  0  0  0  0  0  0
   -6.9530   -0.8285    9.5052 H   0  0  0  0  0  0  0  0  0  0  0  0
   -5.6571    0.3841    9.4381 H   0  0  0  0  0  0  0  0  0  0  0  0
   -7.0922    0.4335    8.4634 H   0  0  0  0  0  0  0  0  0  0  0  0
   -9.7195    1.4093   10.8516 H   0  0  0  0  0  0  0  0  0  0  0  0
   -9.3155    0.3988    9.4972 H   0  0  0  0  0  0  0  0  0  0  0  0
   -9.3402   -0.2667   11.0773 H   0  0  0  0  0  0  0  0  0  0  0  0
   -8.8010    3.7199    8.9374 H   0  0  0  0  0  0  0  0  0  0  0  0
   -5.2753   -0.0903   12.0119 H   0  0  0  0  0  0  0  0  0  0  0  0
   -6.0032   -1.2216   14.5830 H   0  0  0  0  0  0  0  0  0  0  0  0
   -4.6074    0.7140   17.0376 H   0  0  0  0  0  0  0  0  0  0  0  0
   -6.1351    2.7302   19.6392 H   0  0  0  0  0  0  0  0  0  0  0  0
   -4.9369    1.9988   20.0017 H   0  0  0  0  0  0  0  0  0  0  0  0
   -5.6681    4.8419   19.9765 H   0  0  0  0  0  0  0  0  0  0  0  0
   -4.9751    4.8439   22.1104 H   0  0  0  0  0  0  0  0  0  0  0  0
   -4.3519    3.1810   21.8903 H   0  0  0  0  0  0  0  0  0  0  0  0
   -1.9050    6.9661   21.6286 H   0  0  0  0  0  0  0  0  0  0  0  0
   -1.4130    5.6636   20.5514 H   0  0  0  0  0  0  0  0  0  0  0  0
   -3.0238    7.2181   19.4988 H   0  0  0  0  0  0  0  0  0  0  0  0
   -4.2501    6.8795   20.7002 H   0  0  0  0  0  0  0  0  0  0  0  0
   -4.3974    5.7140   18.5654 H   0  0  0  0  0  0  0  0  0  0  0  0
  1  2  1  0
  2  3  1  0
  2  4  1  0
  4  5  2  0
  4  6  1  0
  2  7  1  0
  7  8  1  0
  8  9  2  0
  9 10  1  0
 10 11  1  0
 11 12  1  0
 12 13  2  0
 12 14  1  0
 14 15  1  0
 15 16  1  0
 16 17  1  0
 17 18  1  0
 18 19  1  0
 19 20  1  0
 10 21  2  0
 21  7  1  0
 20 15  1  0
  1 22  1  0
  1 23  1  0
  1 24  1  0
  3 25  1  0
  3 26  1  0
  3 27  1  0
  6 28  1  0
  8 29  1  0
  9 30  1  0
 11 31  1  0
 14 32  1  0
 14 33  1  0
 15 34  1  0
 16 35  1  0
 16 36  1  0
 18 37  1  0
 18 38  1  0
 19 39  1  0
 19 40  1  0
 20 41  1  0
M  END
>  <Energy>  (4) 
518.68592009506574

>  <compound_id>  (4) 
49528

>  <target_id>  (4) 
1

>  <reference_id>  (4) 
70

>  <inspiration_ids>  (4) 
[99, 70]

>  <energy_score>  (4) 
446.75951365830184

>  <distance_score>  (4) 
7.92397710930953

>  <path>  (4) 
/opt/xchem-fragalysis-2/maxwin/BulkDock/SCRATCH/511022/C49528-P70/C49528-P70.minimised.mol

>  <scratch_subdir>  (4) 
/opt/xchem-fragalysis-2/maxwin/BulkDock/SCRATCH/511022/C49528-P70

>  <fragmenstein_runtime>  (4) 
11.772122144699097

>  <fragmenstein_outcome>  (4) 
too moved

>  <fragmenstein_mode>  (4) 
expansion

>  <fragmenstein_error>  (4) 


$$$$
C13792-P99
     RDKit          3D

 46 47  0  0  0  0  0  0  0  0999 V2000
   -2.4794   -1.2753   17.7142 C   0  0  0  0  0  0  0  0  0  0  0  0
   -4.0284    0.0419   17.0642 C   0  0  0  0  0  0  0  0  0  0  0  0
   -5.1364    1.3346   17.7543 C   0  0  0  0  0  0  0  0  0  0  0  0
   -4.0060   -1.1920   18.8435 C   0  0  0  0  0  0  0  0  0  0  0  0
   -3.9115   -2.3178   18.5450 O   0  0  0  0  0  0  0  0  0  0  0  0
   -3.8666   -0.8517   20.7018 N   0  0  0  0  0  0  0  0  0  0  0  0
   -3.4163   -1.9754   22.0893 C   0  0  0  0  0  0  0  0  0  0  0  0
   -4.0005   -3.5842   22.7396 C   0  0  0  0  0  0  0  0  0  0  0  0
   -3.6895   -3.5078   24.1881 C   0  0  0  0  0  0  0  0  0  0  0  0
   -2.8051   -2.3479   24.4496 N   0  0  0  0  0  0  0  0  0  0  0  0
   -2.5571   -1.2079   25.8772 C   0  0  0  0  0  0  0  0  0  0  0  0
   -1.1071   -0.7275   26.8016 C   0  0  0  0  0  0  0  0  0  0  0  0
   -2.9485   -2.0002   27.0785 C   0  0  0  0  0  0  0  0  0  0  0  0
   -2.8302    0.3894   25.8287 C   0  0  0  0  0  0  0  0  0  0  0  0
   -2.2224    1.2298   25.1660 O   0  0  0  0  0  0  0  0  0  0  0  0
   -3.7348    0.9309   26.6431 O   0  0  0  0  0  0  0  0  0  0  0  0
   -2.2176   -2.0706   22.8466 N   0  0  0  0  0  0  0  0  0  0  0  0
   -3.3734    0.6427   14.9594 C   0  0  0  0  0  0  0  0  0  0  0  0
   -3.0365   -0.5013   13.0190 C   0  0  0  0  0  0  0  0  0  0  0  0
   -4.1827   -0.1247   11.4759 C   0  0  0  0  0  0  0  0  0  0  0  0
   -5.2380   -0.3810   12.2606 N   0  0  0  0  0  0  0  0  0  0  0  0
   -3.6477   -0.3156   13.5427 C   0  0  0  0  0  0  0  0  0  0  0  0
   -2.4084   -2.2338   17.1956 H   0  0  0  0  0  0  0  0  0  0  0  0
   -1.3514   -0.9961   17.5975 H   0  0  0  0  0  0  0  0  0  0  0  0
   -2.2121   -1.8599   18.5144 H   0  0  0  0  0  0  0  0  0  0  0  0
   -5.7334    1.9376   17.1674 H   0  0  0  0  0  0  0  0  0  0  0  0
   -5.9106    0.9101   18.4149 H   0  0  0  0  0  0  0  0  0  0  0  0
   -4.6650    2.1449   18.2814 H   0  0  0  0  0  0  0  0  0  0  0  0
   -4.0407    0.0692   20.8510 H   0  0  0  0  0  0  0  0  0  0  0  0
   -4.8089   -4.1188   22.2501 H   0  0  0  0  0  0  0  0  0  0  0  0
   -4.1571   -3.9910   25.0225 H   0  0  0  0  0  0  0  0  0  0  0  0
   -0.4584   -1.5432   27.1437 H   0  0  0  0  0  0  0  0  0  0  0  0
   -0.5092    0.0691   26.3670 H   0  0  0  0  0  0  0  0  0  0  0  0
   -1.4333   -0.2405   27.7394 H   0  0  0  0  0  0  0  0  0  0  0  0
   -3.0926   -1.3349   27.9208 H   0  0  0  0  0  0  0  0  0  0  0  0
   -3.8519   -2.5792   26.9036 H   0  0  0  0  0  0  0  0  0  0  0  0
   -2.1040   -2.5863   27.4404 H   0  0  0  0  0  0  0  0  0  0  0  0
   -3.6699    1.8984   26.4777 H   0  0  0  0  0  0  0  0  0  0  0  0
   -2.7153    1.5663   14.9291 H   0  0  0  0  0  0  0  0  0  0  0  0
   -1.8625   -0.4066   12.4936 H   0  0  0  0  0  0  0  0  0  0  0  0
   -2.5339   -1.6228   12.9136 H   0  0  0  0  0  0  0  0  0  0  0  0
   -3.8346    0.3412   10.5277 H   0  0  0  0  0  0  0  0  0  0  0  0
   -4.5181   -0.7428   10.6668 H   0  0  0  0  0  0  0  0  0  0  0  0
   -5.7775    0.4242   12.5959 H   0  0  0  0  0  0  0  0  0  0  0  0
   -3.0072    1.0366   13.1269 H   0  0  0  0  0  0  0  0  0  0  0  0
   -5.1264   -0.4627   14.1471 H   0  0  0  0  0  0  0  0  0  0  0  0
  1  2  1  0
  2  3  1  0
  2  4  1  0
  4  5  2  0
  4  6  1  0
  6  7  1  0
  7  8  1  0
  8  9  2  0
  9 10  1  0
 10 11  1  0
 11 12  1  0
 11 13  1  0
 11 14  1  0
 14 15  2  0
 14 16  1  0
 10 17  1  0
  2 18  1  0
 18 19  1  0
 19 20  1  0
 20 21  1  0
 21 22  1  0
 17  7  2  0
 22 18  1  0
  1 23  1  0
  1 24  1  0
  1 25  1  0
  3 26  1  0
  3 27  1  0
  3 28  1  0
  6 29  1  0
  8 30  1  0
  9 31  1  0
 12 32  1  0
 12 33  1  0
 12 34  1  0
 13 35  1  0
 13 36  1  0
 13 37  1  0
 16 38  1  0
 18 39  1  0
 19 40  1  0
 19 41  1  0
 20 42  1  0
 20 43  1  0
 21 44  1  0
 22 45  1  0
 22 46  1  0
M  END
>  <Energy>  (5) 
1902.4491523831732

>  <compound_id>  (5) 
13792

>  <target_id>  (5) 
1

>  <reference_id>  (5) 
99

>  <inspiration_ids>  (5) 
[99, 70]

>  <energy_score>  (5) 
1834.197757708666

>  <distance_score>  (5) 
5.726613354723824

>  <path>  (5) 
/opt/xchem-fragalysis-2/maxwin/BulkDock/SCRATCH/511022/C13792-P99/C13792-P99.minimised.mol

>  <scratch_subdir>  (5) 
/opt/xchem-fragalysis-2/maxwin/BulkDock/SCRATCH/511022/C13792-P99

>  <fragmenstein_runtime>  (5) 
21.3454852104187

>  <fragmenstein_outcome>  (5) 
too moved

>  <fragmenstein_mode>  (5) 
expansion

>  <fragmenstein_error>  (5) 


$$$$
C13792-P70
     RDKit          3D

 46 47  0  0  0  0  0  0  0  0999 V2000
   -6.5879    1.6692   13.9321 C   0  0  0  0  0  0  0  0  0  0  0  0
   -5.9106    0.5175   14.6835 C   0  0  0  0  0  0  0  0  0  0  0  0
   -6.3353   -1.0046   14.8580 C   0  0  0  0  0  0  0  0  0  0  0  0
   -5.0527    1.1855   16.5711 C   0  0  0  0  0  0  0  0  0  0  0  0
   -3.9520    0.9733   16.7935 O   0  0  0  0  0  0  0  0  0  0  0  0
   -6.0188    2.1525   17.6673 N   0  0  0  0  0  0  0  0  0  0  0  0
   -5.6712    2.8859   18.8494 C   0  0  0  0  0  0  0  0  0  0  0  0
   -6.2237    4.2330   18.7709 C   0  0  0  0  0  0  0  0  0  0  0  0
   -5.5167    5.0888   19.5554 C   0  0  0  0  0  0  0  0  0  0  0  0
   -4.7077    4.2902   20.3000 N   0  0  0  0  0  0  0  0  0  0  0  0
   -3.8555    4.8544   21.3854 C   0  0  0  0  0  0  0  0  0  0  0  0
   -4.5032    6.0874   22.0859 C   0  0  0  0  0  0  0  0  0  0  0  0
   -3.5794    3.8972   22.5533 C   0  0  0  0  0  0  0  0  0  0  0  0
   -2.5913    5.4593   20.7522 C   0  0  0  0  0  0  0  0  0  0  0  0
   -2.5071    6.0193   19.6682 O   0  0  0  0  0  0  0  0  0  0  0  0
   -1.4947    5.4311   21.5424 O   0  0  0  0  0  0  0  0  0  0  0  0
   -4.8616    2.9082   19.9278 N   0  0  0  0  0  0  0  0  0  0  0  0
   -5.9690    0.3078   12.5942 C   0  0  0  0  0  0  0  0  0  0  0  0
   -4.6331    0.1166   11.6329 C   0  0  0  0  0  0  0  0  0  0  0  0
   -4.8645    0.1902    9.8320 C   0  0  0  0  0  0  0  0  0  0  0  0
   -6.3822    0.2355    9.6648 N   0  0  0  0  0  0  0  0  0  0  0  0
   -7.0492    0.4585   11.0473 C   0  0  0  0  0  0  0  0  0  0  0  0
   -7.5421    1.9112   14.0694 H   0  0  0  0  0  0  0  0  0  0  0  0
   -6.6142    1.8298   12.9163 H   0  0  0  0  0  0  0  0  0  0  0  0
   -6.1261    2.5973   14.0606 H   0  0  0  0  0  0  0  0  0  0  0  0
   -7.0555   -1.1038   15.6739 H   0  0  0  0  0  0  0  0  0  0  0  0
   -5.5225   -1.6293   14.9079 H   0  0  0  0  0  0  0  0  0  0  0  0
   -6.9567   -1.6270   14.2423 H   0  0  0  0  0  0  0  0  0  0  0  0
   -6.9651    2.1552   17.3468 H   0  0  0  0  0  0  0  0  0  0  0  0
   -6.9156    4.6197   18.0425 H   0  0  0  0  0  0  0  0  0  0  0  0
   -5.5558    6.1633   19.6404 H   0  0  0  0  0  0  0  0  0  0  0  0
   -3.9072    6.4098   22.9498 H   0  0  0  0  0  0  0  0  0  0  0  0
   -5.5156    5.8785   22.4416 H   0  0  0  0  0  0  0  0  0  0  0  0
   -4.5622    6.9598   21.4243 H   0  0  0  0  0  0  0  0  0  0  0  0
   -2.7031    4.1859   23.1433 H   0  0  0  0  0  0  0  0  0  0  0  0
   -4.4129    3.8889   23.2577 H   0  0  0  0  0  0  0  0  0  0  0  0
   -3.4259    2.8745   22.2358 H   0  0  0  0  0  0  0  0  0  0  0  0
   -0.7913    5.8304   20.9858 H   0  0  0  0  0  0  0  0  0  0  0  0
   -5.9504   -0.6453   12.6761 H   0  0  0  0  0  0  0  0  0  0  0  0
   -4.2680    1.0021   11.8086 H   0  0  0  0  0  0  0  0  0  0  0  0
   -3.7302   -0.0596   12.2104 H   0  0  0  0  0  0  0  0  0  0  0  0
   -4.3468    1.0362    9.3724 H   0  0  0  0  0  0  0  0  0  0  0  0
   -4.4674   -0.6764    9.3017 H   0  0  0  0  0  0  0  0  0  0  0  0
   -6.6455    0.9850    9.0256 H   0  0  0  0  0  0  0  0  0  0  0  0
   -7.5025    1.4222   10.8780 H   0  0  0  0  0  0  0  0  0  0  0  0
   -7.9906   -0.0245   11.1723 H   0  0  0  0  0  0  0  0  0  0  0  0
  1  2  1  0
  2  3  1  0
  2  4  1  0
  4  5  2  0
  4  6  1  0
  6  7  1  0
  7  8  1  0
  8  9  2  0
  9 10  1  0
 10 11  1  0
 11 12  1  0
 11 13  1  0
 11 14  1  0
 14 15  2  0
 14 16  1  0
 10 17  1  0
  2 18  1  0
 18 19  1  0
 19 20  1  0
 20 21  1  0
 21 22  1  0
 17  7  2  0
 22 18  1  0
  1 23  1  0
  1 24  1  0
  1 25  1  0
  3 26  1  0
  3 27  1  0
  3 28  1  0
  6 29  1  0
  8 30  1  0
  9 31  1  0
 12 32  1  0
 12 33  1  0
 12 34  1  0
 13 35  1  0
 13 36  1  0
 13 37  1  0
 16 38  1  0
 18 39  1  0
 19 40  1  0
 19 41  1  0
 20 42  1  0
 20 43  1  0
 21 44  1  0
 22 45  1  0
 22 46  1  0
M  END
>  <Energy>  (6) 
574.47947456496331

>  <compound_id>  (6) 
13792

>  <target_id>  (6) 
1

>  <reference_id>  (6) 
70

>  <inspiration_ids>  (6) 
[99, 70]

>  <energy_score>  (6) 
506.2280798904086

>  <distance_score>  (6) 
7.903015773801762

>  <path>  (6) 
/opt/xchem-fragalysis-2/maxwin/BulkDock/SCRATCH/511022/C13792-P70/C13792-P70.minimised.mol

>  <scratch_subdir>  (6) 
/opt/xchem-fragalysis-2/maxwin/BulkDock/SCRATCH/511022/C13792-P70

>  <fragmenstein_runtime>  (6) 
30.00282120704651

>  <fragmenstein_outcome>  (6) 
too moved

>  <fragmenstein_mode>  (6) 
expansion

>  <fragmenstein_error>  (6) 


$$$$
C48386-P99
     RDKit          3D

 49 50  0  0  0  0  0  0  0  0999 V2000
   -3.5112    2.9820   22.4771 C   0  0  0  0  0  0  0  0  0  0  0  0
   -2.3372    1.5519   22.5010 S   0  0  0  0  0  0  0  0  0  0  0  0
   -3.4247   -0.3261   21.3758 C   0  0  0  0  0  0  0  0  0  0  0  0
   -3.5067   -0.9263   19.2749 C   0  0  0  0  0  0  0  0  0  0  0  0
   -3.7831   -0.7505   17.9349 N   0  0  0  0  0  0  0  0  0  0  0  0
   -4.1270   -2.4830   18.7178 C   0  0  0  0  0  0  0  0  0  0  0  0
   -4.9597    0.5798   17.0930 C   0  0  0  0  0  0  0  0  0  0  0  0
   -5.5234    1.5044   17.6782 O   0  0  0  0  0  0  0  0  0  0  0  0
   -5.7167    0.4325   15.0447 C   0  0  0  0  0  0  0  0  0  0  0  0
   -5.9735   -0.7128   14.8137 O   0  0  0  0  0  0  0  0  0  0  0  0
   -6.2354    1.5043   13.5421 N   0  0  0  0  0  0  0  0  0  0  0  0
   -6.7586    1.1063   12.1667 C   0  0  0  0  0  0  0  0  0  0  0  0
   -7.8045    1.1696   10.8536 C   0  0  0  0  0  0  0  0  0  0  0  0
   -8.6002    2.3001   11.4189 C   0  0  0  0  0  0  0  0  0  0  0  0
   -7.8769    2.4013   13.1628 C   0  0  0  0  0  0  0  0  0  0  0  0
   -8.8721    3.9921   13.1073 C   0  0  0  0  0  0  0  0  0  0  0  0
   -9.8763    4.0421   13.7841 O   0  0  0  0  0  0  0  0  0  0  0  0
   -8.3348    4.9446   12.1536 N   0  0  0  0  0  0  0  0  0  0  0  0
   -7.3759    5.9230   12.8550 C   0  0  0  0  0  0  0  0  0  0  0  0
   -6.3522    6.7134   11.9771 C   0  0  0  0  0  0  0  0  0  0  0  0
   -6.9912    7.6309   11.0360 N   0  0  0  0  0  0  0  0  0  0  0  0
   -8.1256    6.8973   10.4796 C   0  0  0  0  0  0  0  0  0  0  0  0
   -8.9050    6.2283   11.6255 C   0  0  0  0  0  0  0  0  0  0  0  0
   -2.9471    3.8909   22.2464 H   0  0  0  0  0  0  0  0  0  0  0  0
   -3.9531    3.1624   23.4602 H   0  0  0  0  0  0  0  0  0  0  0  0
   -4.2750    2.8353   21.7175 H   0  0  0  0  0  0  0  0  0  0  0  0
   -2.8735   -1.1390   21.9332 H   0  0  0  0  0  0  0  0  0  0  0  0
   -4.3156   -0.5792   21.7736 H   0  0  0  0  0  0  0  0  0  0  0  0
   -4.3222   -1.0285   19.8957 H   0  0  0  0  0  0  0  0  0  0  0  0
   -4.6237   -0.9343   18.9886 H   0  0  0  0  0  0  0  0  0  0  0  0
   -4.3214   -3.4714   18.0879 H   0  0  0  0  0  0  0  0  0  0  0  0
   -4.3195   -3.0292   19.5990 H   0  0  0  0  0  0  0  0  0  0  0  0
   -3.0713   -2.5709   18.8494 H   0  0  0  0  0  0  0  0  0  0  0  0
   -6.0163    0.3619   11.8560 H   0  0  0  0  0  0  0  0  0  0  0  0
   -7.0073    0.0637   12.5403 H   0  0  0  0  0  0  0  0  0  0  0  0
   -8.3931    0.2518   10.7344 H   0  0  0  0  0  0  0  0  0  0  0  0
   -7.3533    1.3069    9.8653 H   0  0  0  0  0  0  0  0  0  0  0  0
   -8.6413    3.1988   10.7962 H   0  0  0  0  0  0  0  0  0  0  0  0
   -9.6806    2.0835   11.4327 H   0  0  0  0  0  0  0  0  0  0  0  0
   -7.2752    3.2211   13.5168 H   0  0  0  0  0  0  0  0  0  0  0  0
   -7.8545    6.5166   13.6518 H   0  0  0  0  0  0  0  0  0  0  0  0
   -6.6903    5.2798   13.3923 H   0  0  0  0  0  0  0  0  0  0  0  0
   -5.6840    7.2837   12.6328 H   0  0  0  0  0  0  0  0  0  0  0  0
   -5.7144    6.0226   11.4173 H   0  0  0  0  0  0  0  0  0  0  0  0
   -7.3407    8.4388   11.5526 H   0  0  0  0  0  0  0  0  0  0  0  0
   -7.7822    6.1525    9.7520 H   0  0  0  0  0  0  0  0  0  0  0  0
   -8.7746    7.6002    9.9463 H   0  0  0  0  0  0  0  0  0  0  0  0
   -9.8329    5.8690   11.1525 H   0  0  0  0  0  0  0  0  0  0  0  0
   -9.3177    6.9169   12.3834 H   0  0  0  0  0  0  0  0  0  0  0  0
  1  2  1  0
  2  3  1  0
  3  4  1  0
  4  5  1  0
  5  6  1  0
  5  7  1  0
  7  8  2  0
  7  9  1  0
  9 10  2  0
  9 11  1  0
 11 12  1  0
 12 13  1  0
 13 14  1  0
 14 15  1  0
 15 16  1  0
 16 17  2  0
 16 18  1  0
 18 19  1  0
 19 20  1  0
 20 21  1  0
 21 22  1  0
 22 23  1  0
 15 11  1  0
 23 18  1  0
  1 24  1  0
  1 25  1  0
  1 26  1  0
  3 27  1  0
  3 28  1  0
  4 29  1  0
  4 30  1  0
  6 31  1  0
  6 32  1  0
  6 33  1  0
 12 34  1  0
 12 35  1  0
 13 36  1  0
 13 37  1  0
 14 38  1  0
 14 39  1  0
 15 40  1  0
 19 41  1  0
 19 42  1  0
 20 43  1  0
 20 44  1  0
 21 45  1  0
 22 46  1  0
 22 47  1  0
 23 48  1  0
 23 49  1  0
M  END
>  <Energy>  (7) 
1547.1362667385861

>  <compound_id>  (7) 
48386

>  <target_id>  (7) 
1

>  <reference_id>  (7) 
99

>  <inspiration_ids>  (7) 
[99, 70]

>  <energy_score>  (7) 
1348.8005089504402

>  <distance_score>  (7) 
8.192235206745021

>  <path>  (7) 
/opt/xchem-fragalysis-2/maxwin/BulkDock/SCRATCH/511022/C48386-P99/C48386-P99.minimised.mol

>  <scratch_subdir>  (7) 
/opt/xchem-fragalysis-2/maxwin/BulkDock/SCRATCH/511022/C48386-P99

>  <fragmenstein_runtime>  (7) 
39.105456829071045

>  <fragmenstein_outcome>  (7) 
too moved

>  <fragmenstein_mode>  (7) 
expansion

>  <fragmenstein_error>  (7) 


$$$$
C48386-P70
     RDKit          3D

 49 50  0  0  0  0  0  0  0  0999 V2000
   -2.3479    3.9748   23.8987 C   0  0  0  0  0  0  0  0  0  0  0  0
   -1.5186    2.3601   23.9324 S   0  0  0  0  0  0  0  0  0  0  0  0
   -2.1186    1.5681   22.2086 C   0  0  0  0  0  0  0  0  0  0  0  0
   -2.8863   -0.1352   21.2654 C   0  0  0  0  0  0  0  0  0  0  0  0
   -4.1049   -0.5911   19.4428 N   0  0  0  0  0  0  0  0  0  0  0  0
   -4.7349   -0.1477   20.6184 C   0  0  0  0  0  0  0  0  0  0  0  0
   -4.4297    0.3531   17.4159 C   0  0  0  0  0  0  0  0  0  0  0  0
   -3.6378    1.2895   17.2925 O   0  0  0  0  0  0  0  0  0  0  0  0
   -5.7935    0.2345   15.3826 C   0  0  0  0  0  0  0  0  0  0  0  0
   -6.8978    0.5886   15.7062 O   0  0  0  0  0  0  0  0  0  0  0  0
   -6.0168   -0.3677   13.4753 N   0  0  0  0  0  0  0  0  0  0  0  0
   -7.6022   -0.3997   12.2079 C   0  0  0  0  0  0  0  0  0  0  0  0
   -8.5176    0.3180   10.8694 C   0  0  0  0  0  0  0  0  0  0  0  0
   -7.4164    1.1713   10.8869 C   0  0  0  0  0  0  0  0  0  0  0  0
   -5.8910    0.4676   11.9866 C   0  0  0  0  0  0  0  0  0  0  0  0
   -5.3276    0.3154    9.9500 C   0  0  0  0  0  0  0  0  0  0  0  0
   -4.2011   -0.0033    9.8203 O   0  0  0  0  0  0  0  0  0  0  0  0
   -6.2574    0.7060    8.8006 N   0  0  0  0  0  0  0  0  0  0  0  0
   -7.0165   -0.5332    8.2533 C   0  0  0  0  0  0  0  0  0  0  0  0
   -6.6156   -1.4953    7.0736 C   0  0  0  0  0  0  0  0  0  0  0  0
   -5.2092   -1.4218    6.7791 N   0  0  0  0  0  0  0  0  0  0  0  0
   -4.8749   -0.0069    6.7268 C   0  0  0  0  0  0  0  0  0  0  0  0
   -5.9972    0.8950    7.3390 C   0  0  0  0  0  0  0  0  0  0  0  0
   -3.4332    3.8552   23.9266 H   0  0  0  0  0  0  0  0  0  0  0  0
   -2.0585    4.5277   23.0019 H   0  0  0  0  0  0  0  0  0  0  0  0
   -2.0426    4.5504   24.7764 H   0  0  0  0  0  0  0  0  0  0  0  0
   -1.2376    1.9674   21.7233 H   0  0  0  0  0  0  0  0  0  0  0  0
   -2.9660    2.2921   22.2130 H   0  0  0  0  0  0  0  0  0  0  0  0
   -3.5381    0.1677   22.0249 H   0  0  0  0  0  0  0  0  0  0  0  0
   -2.7474   -1.0421   22.0402 H   0  0  0  0  0  0  0  0  0  0  0  0
   -4.5989    1.2631   20.7117 H   0  0  0  0  0  0  0  0  0  0  0  0
   -4.5853   -0.5916   21.6010 H   0  0  0  0  0  0  0  0  0  0  0  0
   -5.7942    0.6337   19.9782 H   0  0  0  0  0  0  0  0  0  0  0  0
   -8.3941   -0.9454   12.7120 H   0  0  0  0  0  0  0  0  0  0  0  0
   -7.0809   -0.6721   11.3199 H   0  0  0  0  0  0  0  0  0  0  0  0
   -8.6854   -0.1218    9.8906 H   0  0  0  0  0  0  0  0  0  0  0  0
   -9.4910    0.8141   10.9777 H   0  0  0  0  0  0  0  0  0  0  0  0
   -7.2852    1.7325    9.9670 H   0  0  0  0  0  0  0  0  0  0  0  0
   -8.0677    1.9264   11.3346 H   0  0  0  0  0  0  0  0  0  0  0  0
   -6.1248    1.3802   12.5405 H   0  0  0  0  0  0  0  0  0  0  0  0
   -7.1704   -1.1425    9.1094 H   0  0  0  0  0  0  0  0  0  0  0  0
   -8.0274   -0.1690    7.9992 H   0  0  0  0  0  0  0  0  0  0  0  0
   -7.1892   -1.2136    6.1785 H   0  0  0  0  0  0  0  0  0  0  0  0
   -6.9260   -2.5238    7.2830 H   0  0  0  0  0  0  0  0  0  0  0  0
   -4.9758   -1.8925    5.9075 H   0  0  0  0  0  0  0  0  0  0  0  0
   -4.7077    0.2990    5.6878 H   0  0  0  0  0  0  0  0  0  0  0  0
   -3.9365    0.1077    7.2712 H   0  0  0  0  0  0  0  0  0  0  0  0
   -5.5871    1.9110    7.3214 H   0  0  0  0  0  0  0  0  0  0  0  0
   -6.8958    1.0219    6.7086 H   0  0  0  0  0  0  0  0  0  0  0  0
  1  2  1  0
  2  3  1  0
  3  4  1  0
  4  5  1  0
  5  6  1  0
  5  7  1  0
  7  8  2  0
  7  9  1  0
  9 10  2  0
  9 11  1  0
 11 12  1  0
 12 13  1  0
 13 14  1  0
 14 15  1  0
 15 16  1  0
 16 17  2  0
 16 18  1  0
 18 19  1  0
 19 20  1  0
 20 21  1  0
 21 22  1  0
 22 23  1  0
 15 11  1  0
 23 18  1  0
  1 24  1  0
  1 25  1  0
  1 26  1  0
  3 27  1  0
  3 28  1  0
  4 29  1  0
  4 30  1  0
  6 31  1  0
  6 32  1  0
  6 33  1  0
 12 34  1  0
 12 35  1  0
 13 36  1  0
 13 37  1  0
 14 38  1  0
 14 39  1  0
 15 40  1  0
 19 41  1  0
 19 42  1  0
 20 43  1  0
 20 44  1  0
 21 45  1  0
 22 46  1  0
 22 47  1  0
 23 48  1  0
 23 49  1  0
M  END
>  <Energy>  (8) 
2441.7525474414119

>  <compound_id>  (8) 
48386

>  <target_id>  (8) 
1

>  <reference_id>  (8) 
70

>  <inspiration_ids>  (8) 
[99, 70]

>  <energy_score>  (8) 
2243.4167896532726

>  <distance_score>  (8) 
5.5674316219965725

>  <path>  (8) 
/opt/xchem-fragalysis-2/maxwin/BulkDock/SCRATCH/511022/C48386-P70/C48386-P70.minimised.mol

>  <scratch_subdir>  (8) 
/opt/xchem-fragalysis-2/maxwin/BulkDock/SCRATCH/511022/C48386-P70

>  <fragmenstein_runtime>  (8) 
24.412171602249146

>  <fragmenstein_outcome>  (8) 
too moved

>  <fragmenstein_mode>  (8) 
expansion

>  <fragmenstein_error>  (8) 


$$$$
C48387-P99
     RDKit          3D

 51 52  0  0  0  0  0  0  0  0999 V2000
   -7.5916   10.2711   17.5128 C   0  0  0  0  0  0  0  0  0  0  0  0
   -8.4982    9.4859   16.9175 C   0  0  0  0  0  0  0  0  0  0  0  0
   -8.2008    8.5844   15.7458 C   0  0  0  0  0  0  0  0  0  0  0  0
   -8.7384    7.1455   15.9053 C   0  0  0  0  0  0  0  0  0  0  0  0
   -8.7475    6.2780   14.5801 C   0  0  0  0  0  0  0  0  0  0  0  0
   -9.0785    5.1225   14.6831 O   0  0  0  0  0  0  0  0  0  0  0  0
   -8.2564    7.0049   13.4517 N   0  0  0  0  0  0  0  0  0  0  0  0
   -9.4077    7.6342   12.6972 C   0  0  0  0  0  0  0  0  0  0  0  0
  -10.1446    6.6251   11.8124 C   0  0  0  0  0  0  0  0  0  0  0  0
   -9.0168    5.7500   11.3923 C   0  0  0  0  0  0  0  0  0  0  0  0
   -7.8807    6.5327   12.0354 C   0  0  0  0  0  0  0  0  0  0  0  0
   -7.1623    7.5454   10.9993 C   0  0  0  0  0  0  0  0  0  0  0  0
   -7.1954    8.7320   11.2007 O   0  0  0  0  0  0  0  0  0  0  0  0
   -6.6444    6.8041    9.8840 N   0  0  0  0  0  0  0  0  0  0  0  0
   -5.1592    6.4367   10.1310 C   0  0  0  0  0  0  0  0  0  0  0  0
   -4.3802    5.4940    9.1502 C   0  0  0  0  0  0  0  0  0  0  0  0
   -5.2497    4.9667    8.0982 N   0  0  0  0  0  0  0  0  0  0  0  0
   -5.9303    6.1334    7.5292 C   0  0  0  0  0  0  0  0  0  0  0  0
   -6.0847    7.2717    8.5713 C   0  0  0  0  0  0  0  0  0  0  0  0
   -8.0574    6.3214   17.0931 C   0  0  0  0  0  0  0  0  0  0  0  0
   -8.9263    6.3145   18.3501 C   0  0  0  0  0  0  0  0  0  0  0  0
   -6.5946    6.6457   17.4252 C   0  0  0  0  0  0  0  0  0  0  0  0
   -7.8707   10.9103   18.3442 H   0  0  0  0  0  0  0  0  0  0  0  0
   -6.5580   10.2954   17.1813 H   0  0  0  0  0  0  0  0  0  0  0  0
   -9.5257    9.5057   17.2747 H   0  0  0  0  0  0  0  0  0  0  0  0
   -7.1272    8.5670   15.5223 H   0  0  0  0  0  0  0  0  0  0  0  0
   -8.6777    9.0658   14.8852 H   0  0  0  0  0  0  0  0  0  0  0  0
   -9.8121    7.2291   16.1356 H   0  0  0  0  0  0  0  0  0  0  0  0
  -10.1353    7.9750   13.4490 H   0  0  0  0  0  0  0  0  0  0  0  0
   -9.1377    8.5641   12.1893 H   0  0  0  0  0  0  0  0  0  0  0  0
  -10.6455    7.1219   10.9763 H   0  0  0  0  0  0  0  0  0  0  0  0
  -10.8934    6.0603   12.3781 H   0  0  0  0  0  0  0  0  0  0  0  0
   -9.1193    4.7538   11.8359 H   0  0  0  0  0  0  0  0  0  0  0  0
   -8.9479    5.6429   10.3071 H   0  0  0  0  0  0  0  0  0  0  0  0
   -7.0904    5.8067   12.2630 H   0  0  0  0  0  0  0  0  0  0  0  0
   -4.5717    7.3385   10.3807 H   0  0  0  0  0  0  0  0  0  0  0  0
   -5.1748    5.9147   11.0972 H   0  0  0  0  0  0  0  0  0  0  0  0
   -3.5515    6.0529    8.6954 H   0  0  0  0  0  0  0  0  0  0  0  0
   -3.9097    4.6819    9.7066 H   0  0  0  0  0  0  0  0  0  0  0  0
   -5.9647    4.4042    8.5732 H   0  0  0  0  0  0  0  0  0  0  0  0
   -6.9162    5.8199    7.1662 H   0  0  0  0  0  0  0  0  0  0  0  0
   -5.3740    6.5088    6.6631 H   0  0  0  0  0  0  0  0  0  0  0  0
   -5.2498    7.9934    8.6119 H   0  0  0  0  0  0  0  0  0  0  0  0
   -6.8918    7.9110    8.1812 H   0  0  0  0  0  0  0  0  0  0  0  0
   -8.0392    5.2784   16.7920 H   0  0  0  0  0  0  0  0  0  0  0  0
   -9.0806    7.3215   18.7424 H   0  0  0  0  0  0  0  0  0  0  0  0
   -8.4815    5.6783   19.1188 H   0  0  0  0  0  0  0  0  0  0  0  0
   -9.9162    5.9013   18.1262 H   0  0  0  0  0  0  0  0  0  0  0  0
   -5.9825    6.6156   16.5185 H   0  0  0  0  0  0  0  0  0  0  0  0
   -6.4815    7.6350   17.8708 H   0  0  0  0  0  0  0  0  0  0  0  0
   -6.1853    5.9092   18.1251 H   0  0  0  0  0  0  0  0  0  0  0  0
  1  2  2  0
  2  3  1  0
  3  4  1  0
  4  5  1  0
  5  6  2  0
  5  7  1  0
  7  8  1  0
  8  9  1  0
  9 10  1  0
 10 11  1  0
 11 12  1  0
 12 13  2  0
 12 14  1  0
 14 15  1  0
 15 16  1  0
 16 17  1  0
 17 18  1  0
 18 19  1  0
  4 20  1  0
 20 21  1  0
 20 22  1  0
 11  7  1  0
 19 14  1  0
  1 23  1  0
  1 24  1  0
  2 25  1  0
  3 26  1  0
  3 27  1  0
  4 28  1  0
  8 29  1  0
  8 30  1  0
  9 31  1  0
  9 32  1  0
 10 33  1  0
 10 34  1  0
 11 35  1  0
 15 36  1  0
 15 37  1  0
 16 38  1  0
 16 39  1  0
 17 40  1  0
 18 41  1  0
 18 42  1  0
 19 43  1  0
 19 44  1  0
 20 45  1  0
 21 46  1  0
 21 47  1  0
 21 48  1  0
 22 49  1  0
 22 50  1  0
 22 51  1  0
M  END
>  <Energy>  (9) 
232.43487485177488

>  <compound_id>  (9) 
48387

>  <target_id>  (9) 
1

>  <reference_id>  (9) 
99

>  <inspiration_ids>  (9) 
[99, 70]

>  <energy_score>  (9) 
80.09151705229965

>  <distance_score>  (9) 
10.650763457724608

>  <path>  (9) 
/opt/xchem-fragalysis-2/maxwin/BulkDock/SCRATCH/511022/C48387-P99/C48387-P99.minimised.mol

>  <scratch_subdir>  (9) 
/opt/xchem-fragalysis-2/maxwin/BulkDock/SCRATCH/511022/C48387-P99

>  <fragmenstein_runtime>  (9) 
48.00426459312439

>  <fragmenstein_outcome>  (9) 
too moved

>  <fragmenstein_mode>  (9) 
expansion

>  <fragmenstein_error>  (9) 


$$$$
C48387-P70
     RDKit          3D

 51 52  0  0  0  0  0  0  0  0999 V2000
   -3.7860   -1.5450   18.8793 C   0  0  0  0  0  0  0  0  0  0  0  0
   -3.2244   -0.7147   18.0373 C   0  0  0  0  0  0  0  0  0  0  0  0
   -4.1648    0.7021   16.8993 C   0  0  0  0  0  0  0  0  0  0  0  0
   -5.5324    0.7241   15.3716 C   0  0  0  0  0  0  0  0  0  0  0  0
   -6.4008    1.2507   13.5129 C   0  0  0  0  0  0  0  0  0  0  0  0
   -6.6606    2.4077   13.5281 O   0  0  0  0  0  0  0  0  0  0  0  0
   -6.6965    0.4918   11.7393 N   0  0  0  0  0  0  0  0  0  0  0  0
   -8.1766   -0.1014   11.4055 C   0  0  0  0  0  0  0  0  0  0  0  0
   -9.1541    0.0614   10.0353 C   0  0  0  0  0  0  0  0  0  0  0  0
   -8.6659    1.3957    9.5990 C   0  0  0  0  0  0  0  0  0  0  0  0
   -7.1716    1.2580   10.0670 C   0  0  0  0  0  0  0  0  0  0  0  0
   -6.5880    0.3126    8.8340 C   0  0  0  0  0  0  0  0  0  0  0  0
   -6.9121   -0.8346    8.9024 O   0  0  0  0  0  0  0  0  0  0  0  0
   -5.8503    1.0000    7.8342 N   0  0  0  0  0  0  0  0  0  0  0  0
   -6.7998    1.5804    6.7755 C   0  0  0  0  0  0  0  0  0  0  0  0
   -7.7384    0.5902    6.0307 C   0  0  0  0  0  0  0  0  0  0  0  0
   -6.9764   -0.2821    5.1421 N   0  0  0  0  0  0  0  0  0  0  0  0
   -5.7928   -0.7281    5.8730 C   0  0  0  0  0  0  0  0  0  0  0  0
   -5.1403    0.4802    6.5902 C   0  0  0  0  0  0  0  0  0  0  0  0
   -5.8620    1.6993   17.3400 C   0  0  0  0  0  0  0  0  0  0  0  0
   -5.9008    3.3238   18.1114 C   0  0  0  0  0  0  0  0  0  0  0  0
   -6.2037    1.3381   18.7677 C   0  0  0  0  0  0  0  0  0  0  0  0
   -3.6416   -2.4977   19.2631 H   0  0  0  0  0  0  0  0  0  0  0  0
   -4.6035   -1.0722   19.1810 H   0  0  0  0  0  0  0  0  0  0  0  0
   -2.2204   -1.1408   17.8659 H   0  0  0  0  0  0  0  0  0  0  0  0
   -3.9256    1.6446   17.4566 H   0  0  0  0  0  0  0  0  0  0  0  0
   -3.6102    1.0642   16.0261 H   0  0  0  0  0  0  0  0  0  0  0  0
   -5.8874   -0.3407   15.1241 H   0  0  0  0  0  0  0  0  0  0  0  0
   -8.7082    0.8561   11.3808 H   0  0  0  0  0  0  0  0  0  0  0  0
   -8.5980   -0.6922   12.2119 H   0  0  0  0  0  0  0  0  0  0  0  0
  -10.2145    0.0904   10.3280 H   0  0  0  0  0  0  0  0  0  0  0  0
   -9.0882   -0.6930    9.2436 H   0  0  0  0  0  0  0  0  0  0  0  0
   -8.8401    1.5250    8.5335 H   0  0  0  0  0  0  0  0  0  0  0  0
   -9.1736    2.2306   10.1005 H   0  0  0  0  0  0  0  0  0  0  0  0
   -6.7805    2.1922    9.7075 H   0  0  0  0  0  0  0  0  0  0  0  0
   -7.4504    2.2588    7.3377 H   0  0  0  0  0  0  0  0  0  0  0  0
   -6.3167    2.3069    6.0983 H   0  0  0  0  0  0  0  0  0  0  0  0
   -8.3129   -0.0133    6.7415 H   0  0  0  0  0  0  0  0  0  0  0  0
   -8.4603    1.1581    5.4341 H   0  0  0  0  0  0  0  0  0  0  0  0
   -7.5454   -1.0907    4.8854 H   0  0  0  0  0  0  0  0  0  0  0  0
   -6.0536   -1.5160    6.5877 H   0  0  0  0  0  0  0  0  0  0  0  0
   -5.0799   -1.1579    5.1610 H   0  0  0  0  0  0  0  0  0  0  0  0
   -4.7881    1.2295    5.8680 H   0  0  0  0  0  0  0  0  0  0  0  0
   -4.2221    0.0544    7.0213 H   0  0  0  0  0  0  0  0  0  0  0  0
   -6.9849    1.4792   17.3589 H   0  0  0  0  0  0  0  0  0  0  0  0
   -5.1037    3.4084   18.8621 H   0  0  0  0  0  0  0  0  0  0  0  0
   -5.9325    4.2877   17.6199 H   0  0  0  0  0  0  0  0  0  0  0  0
   -6.8369    3.4270   18.6884 H   0  0  0  0  0  0  0  0  0  0  0  0
   -5.8267    0.4088   18.7355 H   0  0  0  0  0  0  0  0  0  0  0  0
   -5.7169    1.8347   19.6146 H   0  0  0  0  0  0  0  0  0  0  0  0
   -7.2898    1.3544   18.9566 H   0  0  0  0  0  0  0  0  0  0  0  0
  1  2  2  0
  2  3  1  0
  3  4  1  0
  4  5  1  0
  5  6  2  0
  5  7  1  0
  7  8  1  0
  8  9  1  0
  9 10  1  0
 10 11  1  0
 11 12  1  0
 12 13  2  0
 12 14  1  0
 14 15  1  0
 15 16  1  0
 16 17  1  0
 17 18  1  0
 18 19  1  0
  4 20  1  0
 20 21  1  0
 20 22  1  0
 11  7  1  0
 19 14  1  0
  1 23  1  0
  1 24  1  0
  2 25  1  0
  3 26  1  0
  3 27  1  0
  4 28  1  0
  8 29  1  0
  8 30  1  0
  9 31  1  0
  9 32  1  0
 10 33  1  0
 10 34  1  0
 11 35  1  0
 15 36  1  0
 15 37  1  0
 16 38  1  0
 16 39  1  0
 17 40  1  0
 18 41  1  0
 18 42  1  0
 19 43  1  0
 19 44  1  0
 20 45  1  0
 21 46  1  0
 21 47  1  0
 21 48  1  0
 22 49  1  0
 22 50  1  0
 22 51  1  0
M  END
>  <Energy>  (10) 
1180.13958940149

>  <compound_id>  (10) 
48387

>  <target_id>  (10) 
1

>  <reference_id>  (10) 
70

>  <inspiration_ids>  (10) 
[99, 70]

>  <energy_score>  (10) 
1027.7962316020119

>  <distance_score>  (10) 
6.556232810336773

>  <path>  (10) 
/opt/xchem-fragalysis-2/maxwin/BulkDock/SCRATCH/511022/C48387-P70/C48387-P70.minimised.mol

>  <scratch_subdir>  (10) 
/opt/xchem-fragalysis-2/maxwin/BulkDock/SCRATCH/511022/C48387-P70

>  <fragmenstein_runtime>  (10) 
42.62449049949646

>  <fragmenstein_outcome>  (10) 
too moved

>  <fragmenstein_mode>  (10) 
expansion

>  <fragmenstein_error>  (10) 


$$$$
C48390-P99
     RDKit          3D

 49 51  0  0  0  0  0  0  0  0999 V2000
  -10.2946   -2.0524    7.2915 C   0  0  0  0  0  0  0  0  0  0  0  0
   -8.7935   -3.0744    7.1950 S   0  0  0  0  0  0  0  0  0  0  0  0
   -8.7794   -3.3201    5.3975 C   0  0  0  0  0  0  0  0  0  0  0  0
   -7.3758   -3.1987    4.7965 C   0  0  0  0  0  0  0  0  0  0  0  0
   -6.9147   -1.7651    4.4295 C   0  0  0  0  0  0  0  0  0  0  0  0
   -7.6501   -1.2808    3.2795 N   0  0  0  0  0  0  0  0  0  0  0  0
   -7.1810   -1.0025    1.8305 C   0  0  0  0  0  0  0  0  0  0  0  0
   -6.1493   -1.1931    1.3202 O   0  0  0  0  0  0  0  0  0  0  0  0
   -8.3992   -0.3674    1.1245 C   0  0  0  0  0  0  0  0  0  0  0  0
   -8.4651   -0.4720   -0.3885 C   0  0  0  0  0  0  0  0  0  0  0  0
   -8.5970   -1.9803   -0.6162 C   0  0  0  0  0  0  0  0  0  0  0  0
   -9.4367   -2.4051    0.5877 C   0  0  0  0  0  0  0  0  0  0  0  0
   -9.6748   -1.1429    1.3511 N   0  0  0  0  0  0  0  0  0  0  0  0
  -10.6469   -0.3306    0.5575 C   0  0  0  0  0  0  0  0  0  0  0  0
   -9.8366    0.1628   -0.6483 C   0  0  0  0  0  0  0  0  0  0  0  0
   -7.0649   -0.7505    5.5927 C   0  0  0  0  0  0  0  0  0  0  0  0
   -8.1152   -0.3203    5.9075 O   0  0  0  0  0  0  0  0  0  0  0  0
   -5.6960   -0.5588    6.2221 N   0  0  0  0  0  0  0  0  0  0  0  0
   -5.4190   -1.6114    7.2543 C   0  0  0  0  0  0  0  0  0  0  0  0
   -3.9490   -1.5202    7.5879 C   0  0  0  0  0  0  0  0  0  0  0  0
   -3.9668   -0.1127    8.0318 C   0  0  0  0  0  0  0  0  0  0  0  0
   -5.2581    0.3132    7.3675 C   0  0  0  0  0  0  0  0  0  0  0  0
  -10.3477   -1.5808    8.2756 H   0  0  0  0  0  0  0  0  0  0  0  0
  -11.1797   -2.6731    7.1326 H   0  0  0  0  0  0  0  0  0  0  0  0
  -10.2928   -1.2548    6.5458 H   0  0  0  0  0  0  0  0  0  0  0  0
   -9.4649   -2.6287    4.8977 H   0  0  0  0  0  0  0  0  0  0  0  0
   -9.1900   -4.3148    5.2382 H   0  0  0  0  0  0  0  0  0  0  0  0
   -6.6433   -3.6996    5.4361 H   0  0  0  0  0  0  0  0  0  0  0  0
   -7.3741   -3.7753    3.8611 H   0  0  0  0  0  0  0  0  0  0  0  0
   -5.8638   -1.8093    4.1201 H   0  0  0  0  0  0  0  0  0  0  0  0
   -8.6460   -1.0666    3.3630 H   0  0  0  0  0  0  0  0  0  0  0  0
   -8.4838    0.6647    1.4916 H   0  0  0  0  0  0  0  0  0  0  0  0
   -7.6458   -0.0134   -0.9455 H   0  0  0  0  0  0  0  0  0  0  0  0
   -9.0861   -2.2172   -1.5666 H   0  0  0  0  0  0  0  0  0  0  0  0
   -7.6188   -2.4728   -0.5995 H   0  0  0  0  0  0  0  0  0  0  0  0
  -10.3718   -2.8902    0.2909 H   0  0  0  0  0  0  0  0  0  0  0  0
   -8.8903   -3.1237    1.2097 H   0  0  0  0  0  0  0  0  0  0  0  0
  -10.9942    0.5175    1.1593 H   0  0  0  0  0  0  0  0  0  0  0  0
  -11.5320   -0.9066    0.2650 H   0  0  0  0  0  0  0  0  0  0  0  0
   -9.7665    1.2564   -0.6400 H   0  0  0  0  0  0  0  0  0  0  0  0
  -10.2733   -0.1545   -1.6005 H   0  0  0  0  0  0  0  0  0  0  0  0
   -5.5699   -2.5828    6.7797 H   0  0  0  0  0  0  0  0  0  0  0  0
   -6.1265   -1.6039    8.0996 H   0  0  0  0  0  0  0  0  0  0  0  0
   -3.3349   -1.6398    6.6885 H   0  0  0  0  0  0  0  0  0  0  0  0
   -3.5819   -2.2099    8.3397 H   0  0  0  0  0  0  0  0  0  0  0  0
   -4.0630   -0.0221    9.1131 H   0  0  0  0  0  0  0  0  0  0  0  0
   -3.0719    0.4234    7.7338 H   0  0  0  0  0  0  0  0  0  0  0  0
   -6.0875    0.4374    8.0877 H   0  0  0  0  0  0  0  0  0  0  0  0
   -5.1767    1.3218    6.9548 H   0  0  0  0  0  0  0  0  0  0  0  0
  1  2  1  0
  2  3  1  0
  3  4  1  0
  4  5  1  0
  5  6  1  0
  6  7  1  0
  7  8  2  0
  7  9  1  0
  9 10  1  0
 10 11  1  0
 11 12  1  0
 12 13  1  0
 13 14  1  0
 14 15  1  0
  5 16  1  0
 16 17  2  0
 16 18  1  0
 18 19  1  0
 19 20  1  0
 20 21  1  0
 21 22  1  0
 13  9  1  0
 22 18  1  0
 15 10  1  0
  1 23  1  0
  1 24  1  0
  1 25  1  0
  3 26  1  0
  3 27  1  0
  4 28  1  0
  4 29  1  0
  5 30  1  0
  6 31  1  0
  9 32  1  0
 10 33  1  0
 11 34  1  0
 11 35  1  0
 12 36  1  0
 12 37  1  0
 14 38  1  0
 14 39  1  0
 15 40  1  0
 15 41  1  0
 19 42  1  0
 19 43  1  0
 20 44  1  0
 20 45  1  0
 21 46  1  0
 21 47  1  0
 22 48  1  0
 22 49  1  0
M  END
>  <Energy>  (11) 
156.8355099547388

>  <compound_id>  (11) 
48390

>  <target_id>  (11) 
1

>  <reference_id>  (11) 
99

>  <inspiration_ids>  (11) 
[99, 70]

>  <energy_score>  (11) 
47.13411186688825

>  <distance_score>  (11) 
2.876569770566414

>  <path>  (11) 
/opt/xchem-fragalysis-2/maxwin/BulkDock/SCRATCH/511022/C48390-P99/C48390-P99.minimised.mol

>  <scratch_subdir>  (11) 
/opt/xchem-fragalysis-2/maxwin/BulkDock/SCRATCH/511022/C48390-P99

>  <fragmenstein_runtime>  (11) 
8.42386245727539

>  <fragmenstein_outcome>  (11) 
too moved

>  <fragmenstein_mode>  (11) 
expansion

>  <fragmenstein_error>  (11) 


$$$$
C48390-P70
     RDKit          3D

 49 51  0  0  0  0  0  0  0  0999 V2000
   -7.2536   -6.8447    8.9188 C   0  0  0  0  0  0  0  0  0  0  0  0
   -7.3921   -4.4707    8.6898 S   0  0  0  0  0  0  0  0  0  0  0  0
   -8.2092   -3.8861    7.1050 C   0  0  0  0  0  0  0  0  0  0  0  0
   -7.1302   -3.3809    6.1472 C   0  0  0  0  0  0  0  0  0  0  0  0
   -7.3345   -2.1738    5.2248 C   0  0  0  0  0  0  0  0  0  0  0  0
   -8.0973   -2.4543    4.0400 N   0  0  0  0  0  0  0  0  0  0  0  0
   -8.2191   -1.7345    2.8110 C   0  0  0  0  0  0  0  0  0  0  0  0
   -7.7798   -0.6698    2.4805 O   0  0  0  0  0  0  0  0  0  0  0  0
   -8.9668   -2.5662    1.7449 C   0  0  0  0  0  0  0  0  0  0  0  0
  -10.2064   -1.9710    1.1128 C   0  0  0  0  0  0  0  0  0  0  0  0
  -10.5769   -3.0884    0.1292 C   0  0  0  0  0  0  0  0  0  0  0  0
  -10.1680   -4.3486    0.9058 C   0  0  0  0  0  0  0  0  0  0  0  0
   -9.6447   -3.8337    2.2161 N   0  0  0  0  0  0  0  0  0  0  0  0
  -10.8546   -3.3180    2.9559 C   0  0  0  0  0  0  0  0  0  0  0  0
  -11.2057   -2.0012    2.2652 C   0  0  0  0  0  0  0  0  0  0  0  0
   -7.7324   -0.8834    5.9757 C   0  0  0  0  0  0  0  0  0  0  0  0
   -8.7467   -0.8013    6.6146 O   0  0  0  0  0  0  0  0  0  0  0  0
   -6.6909    0.0802    5.7502 N   0  0  0  0  0  0  0  0  0  0  0  0
   -5.6180   -0.0531    6.8019 C   0  0  0  0  0  0  0  0  0  0  0  0
   -6.0029    0.5428    8.1297 C   0  0  0  0  0  0  0  0  0  0  0  0
   -6.7277    1.7408    7.6347 C   0  0  0  0  0  0  0  0  0  0  0  0
   -6.5910    1.5171    6.1438 C   0  0  0  0  0  0  0  0  0  0  0  0
   -8.1764   -7.3903    8.7312 H   0  0  0  0  0  0  0  0  0  0  0  0
   -6.6922   -7.4556    8.1834 H   0  0  0  0  0  0  0  0  0  0  0  0
   -6.6960   -7.0420    9.8409 H   0  0  0  0  0  0  0  0  0  0  0  0
   -8.8780   -4.6208    6.6668 H   0  0  0  0  0  0  0  0  0  0  0  0
   -8.8451   -3.0600    7.4287 H   0  0  0  0  0  0  0  0  0  0  0  0
   -6.2345   -3.1299    6.7223 H   0  0  0  0  0  0  0  0  0  0  0  0
   -6.8798   -4.2219    5.5069 H   0  0  0  0  0  0  0  0  0  0  0  0
   -6.3360   -1.9877    4.8001 H   0  0  0  0  0  0  0  0  0  0  0  0
   -8.5315   -3.3618    3.9342 H   0  0  0  0  0  0  0  0  0  0  0  0
   -8.1941   -2.8221    1.0041 H   0  0  0  0  0  0  0  0  0  0  0  0
  -10.0957   -0.9873    0.6524 H   0  0  0  0  0  0  0  0  0  0  0  0
  -11.6412   -3.0853   -0.1262 H   0  0  0  0  0  0  0  0  0  0  0  0
   -9.9927   -3.0039   -0.7941 H   0  0  0  0  0  0  0  0  0  0  0  0
   -9.3676   -4.8826    0.3796 H   0  0  0  0  0  0  0  0  0  0  0  0
  -10.9956   -5.0550    1.0345 H   0  0  0  0  0  0  0  0  0  0  0  0
  -10.6296   -3.1551    4.0147 H   0  0  0  0  0  0  0  0  0  0  0  0
  -11.6740   -4.0448    2.9188 H   0  0  0  0  0  0  0  0  0  0  0  0
  -11.0448   -1.1558    2.9437 H   0  0  0  0  0  0  0  0  0  0  0  0
  -12.2439   -1.9778    1.9196 H   0  0  0  0  0  0  0  0  0  0  0  0
   -4.6592    0.3185    6.4080 H   0  0  0  0  0  0  0  0  0  0  0  0
   -5.4246   -1.1203    6.9599 H   0  0  0  0  0  0  0  0  0  0  0  0
   -5.1227    0.7649    8.7360 H   0  0  0  0  0  0  0  0  0  0  0  0
   -6.6682   -0.1139    8.6992 H   0  0  0  0  0  0  0  0  0  0  0  0
   -7.7757    1.7257    7.9526 H   0  0  0  0  0  0  0  0  0  0  0  0
   -6.2854    2.6909    7.9438 H   0  0  0  0  0  0  0  0  0  0  0  0
   -7.4376    2.0124    5.6500 H   0  0  0  0  0  0  0  0  0  0  0  0
   -5.6961    1.9846    5.7022 H   0  0  0  0  0  0  0  0  0  0  0  0
  1  2  1  0
  2  3  1  0
  3  4  1  0
  4  5  1  0
  5  6  1  0
  6  7  1  0
  7  8  2  0
  7  9  1  0
  9 10  1  0
 10 11  1  0
 11 12  1  0
 12 13  1  0
 13 14  1  0
 14 15  1  0
  5 16  1  0
 16 17  2  0
 16 18  1  0
 18 19  1  0
 19 20  1  0
 20 21  1  0
 21 22  1  0
 13  9  1  0
 22 18  1  0
 15 10  1  0
  1 23  1  0
  1 24  1  0
  1 25  1  0
  3 26  1  0
  3 27  1  0
  4 28  1  0
  4 29  1  0
  5 30  1  0
  6 31  1  0
  9 32  1  0
 10 33  1  0
 11 34  1  0
 11 35  1  0
 12 36  1  0
 12 37  1  0
 14 38  1  0
 14 39  1  0
 15 40  1  0
 15 41  1  0
 19 42  1  0
 19 43  1  0
 20 44  1  0
 20 45  1  0
 21 46  1  0
 21 47  1  0
 22 48  1  0
 22 49  1  0
M  END
>  <Energy>  (12) 
217.31500053616651

>  <compound_id>  (12) 
48390

>  <target_id>  (12) 
1

>  <reference_id>  (12) 
70

>  <inspiration_ids>  (12) 
[99, 70]

>  <energy_score>  (12) 
95.758642178412

>  <distance_score>  (12) 
2.8775159940092387

>  <path>  (12) 
/opt/xchem-fragalysis-2/maxwin/BulkDock/SCRATCH/511022/C48390-P70/C48390-P70.minimised.mol

>  <scratch_subdir>  (12) 
/opt/xchem-fragalysis-2/maxwin/BulkDock/SCRATCH/511022/C48390-P70

>  <fragmenstein_runtime>  (12) 
10.905749082565308

>  <fragmenstein_outcome>  (12) 
too moved

>  <fragmenstein_mode>  (12) 
expansion

>  <fragmenstein_error>  (12) 


$$$$
C48391-P99
     RDKit          3D

 55 57  0  0  0  0  0  0  0  0999 V2000
   -5.1015   -1.4394    5.9671 C   0  0  0  0  0  0  0  0  0  0  0  0
   -3.8392   -1.0081    6.7502 C   0  0  0  0  0  0  0  0  0  0  0  0
   -3.6055   -1.6066    8.3368 C   0  0  0  0  0  0  0  0  0  0  0  0
   -4.8557   -0.8657    8.8636 C   0  0  0  0  0  0  0  0  0  0  0  0
   -3.6211   -3.0525    7.8490 C   0  0  0  0  0  0  0  0  0  0  0  0
   -2.0768   -1.0304    9.2408 C   0  0  0  0  0  0  0  0  0  0  0  0
   -1.8626   -0.5763    7.9087 O   0  0  0  0  0  0  0  0  0  0  0  0
   -0.6958   -1.0335   10.9905 C   0  0  0  0  0  0  0  0  0  0  0  0
    0.2972   -1.6396   10.7202 O   0  0  0  0  0  0  0  0  0  0  0  0
   -0.6988   -0.5803   12.7271 N   0  0  0  0  0  0  0  0  0  0  0  0
    0.0053    1.0406   13.5540 C   0  0  0  0  0  0  0  0  0  0  0  0
    0.2412    0.9897   15.5685 C   0  0  0  0  0  0  0  0  0  0  0  0
    0.0118   -0.8125   16.2455 C   0  0  0  0  0  0  0  0  0  0  0  0
   -1.0136   -2.1794   17.4114 N   0  0  0  0  0  0  0  0  0  0  0  0
   -2.7038   -2.1118   18.2576 C   0  0  0  0  0  0  0  0  0  0  0  0
   -3.3316   -1.1024   18.2612 O   0  0  0  0  0  0  0  0  0  0  0  0
   -3.9135   -3.7439   19.0984 C   0  0  0  0  0  0  0  0  0  0  0  0
   -5.1941   -4.2212   20.3675 C   0  0  0  0  0  0  0  0  0  0  0  0
   -5.5253   -5.7217   20.5413 C   0  0  0  0  0  0  0  0  0  0  0  0
   -4.7929   -6.3909   19.5283 N   0  0  0  0  0  0  0  0  0  0  0  0
   -4.9951   -6.1861   18.1084 C   0  0  0  0  0  0  0  0  0  0  0  0
   -4.5402   -4.7609   17.7035 C   0  0  0  0  0  0  0  0  0  0  0  0
   -3.6344   -5.5720   19.6754 C   0  0  0  0  0  0  0  0  0  0  0  0
    0.4473   -1.0034   14.1773 C   0  0  0  0  0  0  0  0  0  0  0  0
   -5.2002   -0.8058    5.0783 H   0  0  0  0  0  0  0  0  0  0  0  0
   -5.0259   -2.4690    5.6057 H   0  0  0  0  0  0  0  0  0  0  0  0
   -6.0210   -1.3318    6.5457 H   0  0  0  0  0  0  0  0  0  0  0  0
   -3.8867    0.0723    6.8305 H   0  0  0  0  0  0  0  0  0  0  0  0
   -2.9895   -1.2494    6.1023 H   0  0  0  0  0  0  0  0  0  0  0  0
   -5.0581    0.0957    8.3738 H   0  0  0  0  0  0  0  0  0  0  0  0
   -5.7755   -1.4383    8.7411 H   0  0  0  0  0  0  0  0  0  0  0  0
   -4.7003   -0.5221    9.8710 H   0  0  0  0  0  0  0  0  0  0  0  0
   -4.6123   -3.3488    7.4884 H   0  0  0  0  0  0  0  0  0  0  0  0
   -3.2983   -3.7986    8.5520 H   0  0  0  0  0  0  0  0  0  0  0  0
   -2.9825   -3.2083    7.0101 H   0  0  0  0  0  0  0  0  0  0  0  0
   -2.7086   -0.1176    9.4863 H   0  0  0  0  0  0  0  0  0  0  0  0
   -1.3766   -1.2451    7.4189 H   0  0  0  0  0  0  0  0  0  0  0  0
   -0.7049    1.8505   13.3365 H   0  0  0  0  0  0  0  0  0  0  0  0
    1.0345    1.2335   13.2194 H   0  0  0  0  0  0  0  0  0  0  0  0
    1.2761    1.2916   15.7340 H   0  0  0  0  0  0  0  0  0  0  0  0
   -0.4768    1.6821   16.0177 H   0  0  0  0  0  0  0  0  0  0  0  0
    0.9530   -0.9308   16.7815 H   0  0  0  0  0  0  0  0  0  0  0  0
   -0.6258   -3.0220   17.5754 H   0  0  0  0  0  0  0  0  0  0  0  0
   -6.1711   -3.7778   20.2082 H   0  0  0  0  0  0  0  0  0  0  0  0
   -4.8075   -4.0036   21.3799 H   0  0  0  0  0  0  0  0  0  0  0  0
   -6.5428   -6.0714   20.6466 H   0  0  0  0  0  0  0  0  0  0  0  0
   -5.1532   -6.0389   21.5330 H   0  0  0  0  0  0  0  0  0  0  0  0
   -5.9472   -6.5508   17.7118 H   0  0  0  0  0  0  0  0  0  0  0  0
   -4.3183   -6.8869   17.5916 H   0  0  0  0  0  0  0  0  0  0  0  0
   -5.1816   -4.1435   17.1500 H   0  0  0  0  0  0  0  0  0  0  0  0
   -3.8415   -4.9412   16.8757 H   0  0  0  0  0  0  0  0  0  0  0  0
   -2.9676   -6.2657   19.1428 H   0  0  0  0  0  0  0  0  0  0  0  0
   -3.3284   -5.6401   20.7343 H   0  0  0  0  0  0  0  0  0  0  0  0
    1.3123   -1.1607   13.5591 H   0  0  0  0  0  0  0  0  0  0  0  0
    0.1273   -2.0604   14.2301 H   0  0  0  0  0  0  0  0  0  0  0  0
  1  2  1  0
  2  3  1  0
  3  4  1  0
  3  5  1  0
  3  6  1  0
  6  7  1  0
  6  8  1  0
  8  9  2  0
  8 10  1  0
 10 11  1  0
 11 12  1  0
 12 13  1  0
 13 14  1  0
 14 15  1  0
 15 16  2  0
 15 17  1  0
 17 18  1  0
 18 19  1  0
 19 20  1  0
 20 21  1  0
 21 22  1  0
 20 23  1  0
 13 24  1  0
 24 10  1  0
 22 17  1  0
 23 17  1  0
  1 25  1  0
  1 26  1  0
  1 27  1  0
  2 28  1  0
  2 29  1  0
  4 30  1  0
  4 31  1  0
  4 32  1  0
  5 33  1  0
  5 34  1  0
  5 35  1  0
  6 36  1  0
  7 37  1  0
 11 38  1  0
 11 39  1  0
 12 40  1  0
 12 41  1  0
 13 42  1  0
 14 43  1  0
 18 44  1  0
 18 45  1  0
 19 46  1  0
 19 47  1  0
 21 48  1  0
 21 49  1  0
 22 50  1  0
 22 51  1  0
 23 52  1  0
 23 53  1  0
 24 54  1  0
 24 55  1  0
M  END
>  <Energy>  (13) 
1378.6098921370217

>  <compound_id>  (13) 
48391

>  <target_id>  (13) 
1

>  <reference_id>  (13) 
99

>  <inspiration_ids>  (13) 
[99, 70]

>  <energy_score>  (13) 
1263.5252343532784

>  <distance_score>  (13) 
9.596747799206637

>  <path>  (13) 
/opt/xchem-fragalysis-2/maxwin/BulkDock/SCRATCH/511022/C48391-P99/C48391-P99.minimised.mol

>  <scratch_subdir>  (13) 
/opt/xchem-fragalysis-2/maxwin/BulkDock/SCRATCH/511022/C48391-P99

>  <fragmenstein_runtime>  (13) 
34.279037952423096

>  <fragmenstein_outcome>  (13) 
too moved

>  <fragmenstein_mode>  (13) 
expansion

>  <fragmenstein_error>  (13) 


$$$$
C48391-P70
     RDKit          3D

 55 57  0  0  0  0  0  0  0  0999 V2000
   -7.5577    0.8467    5.8648 C   0  0  0  0  0  0  0  0  0  0  0  0
   -7.7194    1.4244    7.2794 C   0  0  0  0  0  0  0  0  0  0  0  0
   -7.3228    0.4698    8.4708 C   0  0  0  0  0  0  0  0  0  0  0  0
   -8.4107   -0.6246    8.4474 C   0  0  0  0  0  0  0  0  0  0  0  0
   -5.9159   -0.0604    8.1521 C   0  0  0  0  0  0  0  0  0  0  0  0
   -7.2706    1.3468    9.8524 C   0  0  0  0  0  0  0  0  0  0  0  0
   -8.6257    1.8202    9.9849 O   0  0  0  0  0  0  0  0  0  0  0  0
   -6.8229    0.4819   11.3425 C   0  0  0  0  0  0  0  0  0  0  0  0
   -7.2920   -0.5133   11.3387 O   0  0  0  0  0  0  0  0  0  0  0  0
   -5.9943    0.9000   12.7104 N   0  0  0  0  0  0  0  0  0  0  0  0
   -3.9946    0.3674   12.5571 C   0  0  0  0  0  0  0  0  0  0  0  0
   -3.3850    1.0521   14.5472 C   0  0  0  0  0  0  0  0  0  0  0  0
   -4.8286    0.7812   16.0052 C   0  0  0  0  0  0  0  0  0  0  0  0
   -4.6205    0.6989   17.9321 N   0  0  0  0  0  0  0  0  0  0  0  0
   -3.8434   -0.7564   19.3051 C   0  0  0  0  0  0  0  0  0  0  0  0
   -3.5412   -1.8650   18.8784 O   0  0  0  0  0  0  0  0  0  0  0  0
   -3.3224   -0.1585   21.5593 C   0  0  0  0  0  0  0  0  0  0  0  0
   -1.9459    1.3443   22.1615 C   0  0  0  0  0  0  0  0  0  0  0  0
   -1.0502    1.8600   23.6515 C   0  0  0  0  0  0  0  0  0  0  0  0
   -1.8014    0.5022   24.7864 N   0  0  0  0  0  0  0  0  0  0  0  0
   -2.9372    2.0565   24.4791 C   0  0  0  0  0  0  0  0  0  0  0  0
   -3.3409    1.8193   22.4678 C   0  0  0  0  0  0  0  0  0  0  0  0
   -2.1664   -1.0654   23.2138 C   0  0  0  0  0  0  0  0  0  0  0  0
   -5.7920    0.0163   14.4381 C   0  0  0  0  0  0  0  0  0  0  0  0
   -6.5075    0.6483    5.6302 H   0  0  0  0  0  0  0  0  0  0  0  0
   -8.1258   -0.0713    5.7028 H   0  0  0  0  0  0  0  0  0  0  0  0
   -7.9140    1.5813    5.1340 H   0  0  0  0  0  0  0  0  0  0  0  0
   -7.1092    2.3361    7.3258 H   0  0  0  0  0  0  0  0  0  0  0  0
   -8.7602    1.7524    7.4002 H   0  0  0  0  0  0  0  0  0  0  0  0
   -8.0035   -1.6136    8.6365 H   0  0  0  0  0  0  0  0  0  0  0  0
   -9.2210   -0.4137    9.1515 H   0  0  0  0  0  0  0  0  0  0  0  0
   -8.9093   -0.7270    7.4801 H   0  0  0  0  0  0  0  0  0  0  0  0
   -5.9418   -0.8647    7.4092 H   0  0  0  0  0  0  0  0  0  0  0  0
   -5.2763    0.7387    7.7612 H   0  0  0  0  0  0  0  0  0  0  0  0
   -5.3993   -0.4340    9.0275 H   0  0  0  0  0  0  0  0  0  0  0  0
   -6.6946    2.1737    9.4841 H   0  0  0  0  0  0  0  0  0  0  0  0
   -8.6066    2.4279   10.7454 H   0  0  0  0  0  0  0  0  0  0  0  0
   -4.1923    0.8604   11.6727 H   0  0  0  0  0  0  0  0  0  0  0  0
   -4.2746   -0.3928   11.8980 H   0  0  0  0  0  0  0  0  0  0  0  0
   -2.8200    1.9832   14.1790 H   0  0  0  0  0  0  0  0  0  0  0  0
   -2.5889    1.5464   15.1523 H   0  0  0  0  0  0  0  0  0  0  0  0
   -5.4238    1.5496   16.3213 H   0  0  0  0  0  0  0  0  0  0  0  0
   -4.7425    1.5829   18.4113 H   0  0  0  0  0  0  0  0  0  0  0  0
   -1.5589    0.6049   22.6292 H   0  0  0  0  0  0  0  0  0  0  0  0
   -1.2618    1.9038   21.5312 H   0  0  0  0  0  0  0  0  0  0  0  0
    0.0038    1.9066   23.8354 H   0  0  0  0  0  0  0  0  0  0  0  0
   -1.2211    2.9299   23.8281 H   0  0  0  0  0  0  0  0  0  0  0  0
   -2.5301    3.0225   24.8135 H   0  0  0  0  0  0  0  0  0  0  0  0
   -3.6853    1.8611   25.2853 H   0  0  0  0  0  0  0  0  0  0  0  0
   -4.3687    2.1931   22.1031 H   0  0  0  0  0  0  0  0  0  0  0  0
   -3.0505    2.8609   22.1204 H   0  0  0  0  0  0  0  0  0  0  0  0
   -1.4635   -1.9131   23.0118 H   0  0  0  0  0  0  0  0  0  0  0  0
   -2.9254   -1.7626   23.6828 H   0  0  0  0  0  0  0  0  0  0  0  0
   -6.5434    0.3500   15.0369 H   0  0  0  0  0  0  0  0  0  0  0  0
   -6.0197   -1.0554   14.4313 H   0  0  0  0  0  0  0  0  0  0  0  0
  1  2  1  0
  2  3  1  0
  3  4  1  0
  3  5  1  0
  3  6  1  0
  6  7  1  0
  6  8  1  0
  8  9  2  0
  8 10  1  0
 10 11  1  0
 11 12  1  0
 12 13  1  0
 13 14  1  0
 14 15  1  0
 15 16  2  0
 15 17  1  0
 17 18  1  0
 18 19  1  0
 19 20  1  0
 20 21  1  0
 21 22  1  0
 20 23  1  0
 13 24  1  0
 24 10  1  0
 22 17  1  0
 23 17  1  0
  1 25  1  0
  1 26  1  0
  1 27  1  0
  2 28  1  0
  2 29  1  0
  4 30  1  0
  4 31  1  0
  4 32  1  0
  5 33  1  0
  5 34  1  0
  5 35  1  0
  6 36  1  0
  7 37  1  0
 11 38  1  0
 11 39  1  0
 12 40  1  0
 12 41  1  0
 13 42  1  0
 14 43  1  0
 18 44  1  0
 18 45  1  0
 19 46  1  0
 19 47  1  0
 21 48  1  0
 21 49  1  0
 22 50  1  0
 22 51  1  0
 23 52  1  0
 23 53  1  0
 24 54  1  0
 24 55  1  0
M  END
>  <Energy>  (14) 
2372.0889211532594

>  <compound_id>  (14) 
48391

>  <target_id>  (14) 
1

>  <reference_id>  (14) 
70

>  <inspiration_ids>  (14) 
[99, 70]

>  <energy_score>  (14) 
2257.004263369543

>  <distance_score>  (14) 
6.022278097861498

>  <path>  (14) 
/opt/xchem-fragalysis-2/maxwin/BulkDock/SCRATCH/511022/C48391-P70/C48391-P70.minimised.mol

>  <scratch_subdir>  (14) 
/opt/xchem-fragalysis-2/maxwin/BulkDock/SCRATCH/511022/C48391-P70

>  <fragmenstein_runtime>  (14) 
34.62514901161194

>  <fragmenstein_outcome>  (14) 
too moved

>  <fragmenstein_mode>  (14) 
expansion

>  <fragmenstein_error>  (14) 


$$$$
C76297-P27
     RDKit          3D

 47 49  0  0  0  0  0  0  0  0999 V2000
   11.8000   -5.6280   24.6407 C   0  0  0  0  0  0  0  0  0  0  0  0
   10.7474   -6.7370   24.6330 C   0  0  0  0  0  0  0  0  0  0  0  0
   10.7888   -7.8691   23.5724 C   0  0  0  0  0  0  0  0  0  0  0  0
   12.0764   -7.8850   22.6809 C   0  0  0  0  0  0  0  0  0  0  0  0
   12.3600   -6.7096   21.7586 C   0  0  0  0  0  0  0  0  0  0  0  0
   10.6239   -9.3097   24.2689 C   0  0  0  0  0  0  0  0  0  0  0  0
   11.5700  -10.0458   24.2056 O   0  0  0  0  0  0  0  0  0  0  0  0
    9.3220   -9.4877   24.9079 N   0  0  0  0  0  0  0  0  0  0  0  0
    8.7977  -10.5915   25.7608 C   0  0  0  0  0  0  0  0  0  0  0  0
    7.4603  -10.4181   26.5521 C   0  0  0  0  0  0  0  0  0  0  0  0
    7.3059  -11.9829   26.4371 C   0  0  0  0  0  0  0  0  0  0  0  0
    6.0032  -12.7884   26.4593 N   0  0  0  0  0  0  0  0  0  0  0  0
    5.0288  -13.0630   27.5850 C   0  0  0  0  0  0  0  0  0  0  0  0
    5.0076  -12.6419   28.7121 O   0  0  0  0  0  0  0  0  0  0  0  0
    3.7661  -14.3380   27.1530 C   0  0  0  0  0  0  0  0  0  0  0  0
    3.7438  -15.7282   27.6531 C   0  0  0  0  0  0  0  0  0  0  0  0
    2.7300  -16.6885   27.7658 N   0  0  0  0  0  0  0  0  0  0  0  0
    1.7550  -15.9042   27.9575 C   0  0  0  0  0  0  0  0  0  0  0  0
    2.2382  -14.3015   27.3370 N   0  0  0  0  0  0  0  0  0  0  0  0
    0.8248  -13.5129   26.7425 C   0  0  0  0  0  0  0  0  0  0  0  0
   -0.7969  -14.2260   27.6356 C   0  0  0  0  0  0  0  0  0  0  0  0
   -0.1800  -16.0281   29.0194 S   0  0  0  0  0  0  0  0  0  0  0  0
    8.0571  -11.7768   25.0631 C   0  0  0  0  0  0  0  0  0  0  0  0
   12.8143   -6.0368   24.6490 H   0  0  0  0  0  0  0  0  0  0  0  0
   11.6914   -4.9235   23.8200 H   0  0  0  0  0  0  0  0  0  0  0  0
   11.6886   -5.0398   25.5593 H   0  0  0  0  0  0  0  0  0  0  0  0
   10.7927   -7.2009   25.6278 H   0  0  0  0  0  0  0  0  0  0  0  0
    9.7547   -6.2712   24.5954 H   0  0  0  0  0  0  0  0  0  0  0  0
    9.9273   -7.7567   22.9007 H   0  0  0  0  0  0  0  0  0  0  0  0
   12.0220   -8.7783   22.0439 H   0  0  0  0  0  0  0  0  0  0  0  0
   12.9540   -8.0382   23.3224 H   0  0  0  0  0  0  0  0  0  0  0  0
   11.4970   -6.4951   21.1407 H   0  0  0  0  0  0  0  0  0  0  0  0
   12.6618   -5.8042   22.2788 H   0  0  0  0  0  0  0  0  0  0  0  0
   13.2092   -6.9562   21.1191 H   0  0  0  0  0  0  0  0  0  0  0  0
    8.7344   -8.6899   24.6900 H   0  0  0  0  0  0  0  0  0  0  0  0
    9.6135  -10.9401   26.4117 H   0  0  0  0  0  0  0  0  0  0  0  0
    6.7485   -9.7759   26.0355 H   0  0  0  0  0  0  0  0  0  0  0  0
    7.5759  -10.0470   27.5749 H   0  0  0  0  0  0  0  0  0  0  0  0
    7.9665  -12.4824   27.1638 H   0  0  0  0  0  0  0  0  0  0  0  0
    5.6784  -13.2370   25.6307 H   0  0  0  0  0  0  0  0  0  0  0  0
    4.4132  -16.0032   28.4134 H   0  0  0  0  0  0  0  0  0  0  0  0
    1.0453  -13.6707   25.7062 H   0  0  0  0  0  0  0  0  0  0  0  0
    0.8945  -12.4136   26.7996 H   0  0  0  0  0  0  0  0  0  0  0  0
   -1.3582  -13.4091   28.1377 H   0  0  0  0  0  0  0  0  0  0  0  0
   -1.6500  -14.5454   27.0095 H   0  0  0  0  0  0  0  0  0  0  0  0
    8.7004  -12.6037   24.7519 H   0  0  0  0  0  0  0  0  0  0  0  0
    7.4107  -11.4844   24.2280 H   0  0  0  0  0  0  0  0  0  0  0  0
  1  2  1  0
  2  3  1  0
  3  4  1  0
  4  5  1  0
  3  6  1  0
  6  7  2  0
  6  8  1  0
  8  9  1  0
  9 10  1  0
 10 11  1  0
 11 12  1  0
 12 13  1  0
 13 14  2  0
 13 15  1  0
 15 16  2  0
 16 17  1  0
 17 18  2  0
 18 19  1  0
 19 20  1  0
 20 21  1  0
 21 22  1  0
 11 23  1  0
 23  9  1  0
 19 15  1  0
 22 18  1  0
  1 24  1  0
  1 25  1  0
  1 26  1  0
  2 27  1  0
  2 28  1  0
  3 29  1  0
  4 30  1  0
  4 31  1  0
  5 32  1  0
  5 33  1  0
  5 34  1  0
  8 35  1  0
  9 36  1  0
 10 37  1  0
 10 38  1  0
 11 39  1  0
 12 40  1  0
 16 41  1  0
 20 42  1  0
 20 43  1  0
 21 44  1  0
 21 45  1  0
 23 46  1  0
 23 47  1  0
M  END
>  <Energy>  (15) 
308.28429113325041

>  <compound_id>  (15) 
76297

>  <target_id>  (15) 
1

>  <reference_id>  (15) 
27

>  <inspiration_ids>  (15) 
[27, 35]

>  <energy_score>  (15) 
300.67226805319336

>  <distance_score>  (15) 
13.874136018500357

>  <path>  (15) 
/opt/xchem-fragalysis-2/maxwin/BulkDock/SCRATCH/511022/C76297-P27/C76297-P27.minimised.mol

>  <scratch_subdir>  (15) 
/opt/xchem-fragalysis-2/maxwin/BulkDock/SCRATCH/511022/C76297-P27

>  <fragmenstein_runtime>  (15) 
46.78014039993286

>  <fragmenstein_outcome>  (15) 
too moved

>  <fragmenstein_mode>  (15) 
expansion

>  <fragmenstein_error>  (15) 


$$$$
C76297-P35
     RDKit          3D

 47 49  0  0  0  0  0  0  0  0999 V2000
    5.2470   -5.5594   20.4413 C   0  0  0  0  0  0  0  0  0  0  0  0
    3.7671   -5.4884   20.0486 C   0  0  0  0  0  0  0  0  0  0  0  0
    3.0526   -6.8354   19.6423 C   0  0  0  0  0  0  0  0  0  0  0  0
    3.3645   -7.1894   18.1594 C   0  0  0  0  0  0  0  0  0  0  0  0
    4.8227   -7.1913   17.7119 C   0  0  0  0  0  0  0  0  0  0  0  0
    1.4566   -6.6921   19.8027 C   0  0  0  0  0  0  0  0  0  0  0  0
    1.0187   -5.5867   19.6185 O   0  0  0  0  0  0  0  0  0  0  0  0
    0.7651   -7.9646   20.0575 N   0  0  0  0  0  0  0  0  0  0  0  0
   -0.7081   -8.3041   20.0693 C   0  0  0  0  0  0  0  0  0  0  0  0
   -1.1193   -9.7138   19.5664 C   0  0  0  0  0  0  0  0  0  0  0  0
   -1.3675  -10.1582   21.0338 C   0  0  0  0  0  0  0  0  0  0  0  0
   -2.4496  -11.2501   21.3091 N   0  0  0  0  0  0  0  0  0  0  0  0
   -3.2935  -11.5024   22.5029 C   0  0  0  0  0  0  0  0  0  0  0  0
   -3.4091  -10.8772   23.5214 O   0  0  0  0  0  0  0  0  0  0  0  0
   -4.0607  -12.8112   22.4903 C   0  0  0  0  0  0  0  0  0  0  0  0
   -4.5760  -13.6199   21.4690 C   0  0  0  0  0  0  0  0  0  0  0  0
   -5.2433  -14.7573   21.9251 N   0  0  0  0  0  0  0  0  0  0  0  0
   -5.1035  -14.6993   23.2144 C   0  0  0  0  0  0  0  0  0  0  0  0
   -4.4414  -13.5738   23.6086 N   0  0  0  0  0  0  0  0  0  0  0  0
   -4.1603  -13.5008   25.0312 C   0  0  0  0  0  0  0  0  0  0  0  0
   -5.0520  -14.5302   25.7555 C   0  0  0  0  0  0  0  0  0  0  0  0
   -5.5635  -15.7560   24.4978 S   0  0  0  0  0  0  0  0  0  0  0  0
   -1.4412   -8.6683   21.4045 C   0  0  0  0  0  0  0  0  0  0  0  0
    5.3997   -6.3242   21.2093 H   0  0  0  0  0  0  0  0  0  0  0  0
    5.9085   -5.7810   19.6055 H   0  0  0  0  0  0  0  0  0  0  0  0
    5.5623   -4.5984   20.8604 H   0  0  0  0  0  0  0  0  0  0  0  0
    3.2348   -5.0832   20.9196 H   0  0  0  0  0  0  0  0  0  0  0  0
    3.6373   -4.7484   19.2496 H   0  0  0  0  0  0  0  0  0  0  0  0
    3.3917   -7.6366   20.3092 H   0  0  0  0  0  0  0  0  0  0  0  0
    2.9488   -8.1870   17.9652 H   0  0  0  0  0  0  0  0  0  0  0  0
    2.8069   -6.5095   17.5019 H   0  0  0  0  0  0  0  0  0  0  0  0
    5.4460   -7.7584   18.4087 H   0  0  0  0  0  0  0  0  0  0  0  0
    5.2086   -6.1773   17.6069 H   0  0  0  0  0  0  0  0  0  0  0  0
    4.9034   -7.6640   16.7272 H   0  0  0  0  0  0  0  0  0  0  0  0
    1.4529   -8.7189   20.0834 H   0  0  0  0  0  0  0  0  0  0  0  0
   -1.2347   -7.5094   19.5241 H   0  0  0  0  0  0  0  0  0  0  0  0
   -0.3619  -10.2595   19.0069 H   0  0  0  0  0  0  0  0  0  0  0  0
   -2.0337   -9.6996   18.9597 H   0  0  0  0  0  0  0  0  0  0  0  0
   -0.4338  -10.5034   21.4785 H   0  0  0  0  0  0  0  0  0  0  0  0
   -2.5406  -12.0313   20.6664 H   0  0  0  0  0  0  0  0  0  0  0  0
   -4.5209  -13.4326   20.4039 H   0  0  0  0  0  0  0  0  0  0  0  0
   -3.0999  -13.7468   25.1465 H   0  0  0  0  0  0  0  0  0  0  0  0
   -4.3488  -12.4845   25.3857 H   0  0  0  0  0  0  0  0  0  0  0  0
   -4.5263  -15.0056   26.5883 H   0  0  0  0  0  0  0  0  0  0  0  0
   -5.9524  -14.0423   26.1429 H   0  0  0  0  0  0  0  0  0  0  0  0
   -2.4653   -8.2803   21.4564 H   0  0  0  0  0  0  0  0  0  0  0  0
   -0.9170   -8.3857   22.3223 H   0  0  0  0  0  0  0  0  0  0  0  0
  1  2  1  0
  2  3  1  0
  3  4  1  0
  4  5  1  0
  3  6  1  0
  6  7  2  0
  6  8  1  0
  8  9  1  0
  9 10  1  0
 10 11  1  0
 11 12  1  0
 12 13  1  0
 13 14  2  0
 13 15  1  0
 15 16  2  0
 16 17  1  0
 17 18  2  0
 18 19  1  0
 19 20  1  0
 20 21  1  0
 21 22  1  0
 11 23  1  0
 23  9  1  0
 19 15  1  0
 22 18  1  0
  1 24  1  0
  1 25  1  0
  1 26  1  0
  2 27  1  0
  2 28  1  0
  3 29  1  0
  4 30  1  0
  4 31  1  0
  5 32  1  0
  5 33  1  0
  5 34  1  0
  8 35  1  0
  9 36  1  0
 10 37  1  0
 10 38  1  0
 11 39  1  0
 12 40  1  0
 16 41  1  0
 20 42  1  0
 20 43  1  0
 21 44  1  0
 21 45  1  0
 23 46  1  0
 23 47  1  0
M  END
>  <Energy>  (16) 
2.551062245507663

>  <compound_id>  (16) 
76297

>  <target_id>  (16) 
1

>  <reference_id>  (16) 
35

>  <inspiration_ids>  (16) 
[27, 35]

>  <energy_score>  (16) 
-5.060960834541675

>  <distance_score>  (16) 
15.005496585896953

>  <path>  (16) 
/opt/xchem-fragalysis-2/maxwin/BulkDock/SCRATCH/511022/C76297-P35/C76297-P35.minimised.mol

>  <scratch_subdir>  (16) 
/opt/xchem-fragalysis-2/maxwin/BulkDock/SCRATCH/511022/C76297-P35

>  <fragmenstein_runtime>  (16) 
46.3387508392334

>  <fragmenstein_outcome>  (16) 
too moved

>  <fragmenstein_mode>  (16) 
expansion

>  <fragmenstein_error>  (16) 


$$$$
C76297-P27
     RDKit          3D

 47 49  0  0  0  0  0  0  0  0999 V2000
   11.8000   -5.6280   24.6407 C   0  0  0  0  0  0  0  0  0  0  0  0
   10.7474   -6.7370   24.6330 C   0  0  0  0  0  0  0  0  0  0  0  0
   10.7888   -7.8691   23.5724 C   0  0  0  0  0  0  0  0  0  0  0  0
   12.0764   -7.8850   22.6809 C   0  0  0  0  0  0  0  0  0  0  0  0
   12.3600   -6.7096   21.7586 C   0  0  0  0  0  0  0  0  0  0  0  0
   10.6239   -9.3097   24.2689 C   0  0  0  0  0  0  0  0  0  0  0  0
   11.5700  -10.0458   24.2056 O   0  0  0  0  0  0  0  0  0  0  0  0
    9.3220   -9.4877   24.9079 N   0  0  0  0  0  0  0  0  0  0  0  0
    8.7977  -10.5915   25.7608 C   0  0  0  0  0  0  0  0  0  0  0  0
    7.4603  -10.4181   26.5521 C   0  0  0  0  0  0  0  0  0  0  0  0
    7.3059  -11.9829   26.4371 C   0  0  0  0  0  0  0  0  0  0  0  0
    6.0032  -12.7884   26.4593 N   0  0  0  0  0  0  0  0  0  0  0  0
    5.0288  -13.0630   27.5850 C   0  0  0  0  0  0  0  0  0  0  0  0
    5.0076  -12.6419   28.7121 O   0  0  0  0  0  0  0  0  0  0  0  0
    3.7661  -14.3380   27.1530 C   0  0  0  0  0  0  0  0  0  0  0  0
    3.7438  -15.7282   27.6531 C   0  0  0  0  0  0  0  0  0  0  0  0
    2.7300  -16.6885   27.7658 N   0  0  0  0  0  0  0  0  0  0  0  0
    1.7550  -15.9042   27.9575 C   0  0  0  0  0  0  0  0  0  0  0  0
    2.2382  -14.3015   27.3370 N   0  0  0  0  0  0  0  0  0  0  0  0
    0.8248  -13.5129   26.7425 C   0  0  0  0  0  0  0  0  0  0  0  0
   -0.7969  -14.2260   27.6356 C   0  0  0  0  0  0  0  0  0  0  0  0
   -0.1800  -16.0281   29.0194 S   0  0  0  0  0  0  0  0  0  0  0  0
    8.0571  -11.7768   25.0631 C   0  0  0  0  0  0  0  0  0  0  0  0
   12.8143   -6.0368   24.6490 H   0  0  0  0  0  0  0  0  0  0  0  0
   11.6914   -4.9235   23.8200 H   0  0  0  0  0  0  0  0  0  0  0  0
   11.6886   -5.0398   25.5593 H   0  0  0  0  0  0  0  0  0  0  0  0
   10.7927   -7.2009   25.6278 H   0  0  0  0  0  0  0  0  0  0  0  0
    9.7547   -6.2712   24.5954 H   0  0  0  0  0  0  0  0  0  0  0  0
    9.9273   -7.7567   22.9007 H   0  0  0  0  0  0  0  0  0  0  0  0
   12.0220   -8.7783   22.0439 H   0  0  0  0  0  0  0  0  0  0  0  0
   12.9540   -8.0382   23.3224 H   0  0  0  0  0  0  0  0  0  0  0  0
   11.4970   -6.4951   21.1407 H   0  0  0  0  0  0  0  0  0  0  0  0
   12.6618   -5.8042   22.2788 H   0  0  0  0  0  0  0  0  0  0  0  0
   13.2092   -6.9562   21.1191 H   0  0  0  0  0  0  0  0  0  0  0  0
    8.7344   -8.6899   24.6900 H   0  0  0  0  0  0  0  0  0  0  0  0
    9.6135  -10.9401   26.4117 H   0  0  0  0  0  0  0  0  0  0  0  0
    6.7485   -9.7759   26.0355 H   0  0  0  0  0  0  0  0  0  0  0  0
    7.5759  -10.0470   27.5749 H   0  0  0  0  0  0  0  0  0  0  0  0
    7.9665  -12.4824   27.1638 H   0  0  0  0  0  0  0  0  0  0  0  0
    5.6784  -13.2370   25.6307 H   0  0  0  0  0  0  0  0  0  0  0  0
    4.4132  -16.0032   28.4134 H   0  0  0  0  0  0  0  0  0  0  0  0
    1.0453  -13.6707   25.7062 H   0  0  0  0  0  0  0  0  0  0  0  0
    0.8945  -12.4136   26.7996 H   0  0  0  0  0  0  0  0  0  0  0  0
   -1.3582  -13.4091   28.1377 H   0  0  0  0  0  0  0  0  0  0  0  0
   -1.6500  -14.5454   27.0095 H   0  0  0  0  0  0  0  0  0  0  0  0
    8.7004  -12.6037   24.7519 H   0  0  0  0  0  0  0  0  0  0  0  0
    7.4107  -11.4844   24.2280 H   0  0  0  0  0  0  0  0  0  0  0  0
  1  2  1  0
  2  3  1  0
  3  4  1  0
  4  5  1  0
  3  6  1  0
  6  7  2  0
  6  8  1  0
  8  9  1  0
  9 10  1  0
 10 11  1  0
 11 12  1  0
 12 13  1  0
 13 14  2  0
 13 15  1  0
 15 16  2  0
 16 17  1  0
 17 18  2  0
 18 19  1  0
 19 20  1  0
 20 21  1  0
 21 22  1  0
 11 23  1  0
 23  9  1  0
 19 15  1  0
 22 18  1  0
  1 24  1  0
  1 25  1  0
  1 26  1  0
  2 27  1  0
  2 28  1  0
  3 29  1  0
  4 30  1  0
  4 31  1  0
  5 32  1  0
  5 33  1  0
  5 34  1  0
  8 35  1  0
  9 36  1  0
 10 37  1  0
 10 38  1  0
 11 39  1  0
 12 40  1  0
 16 41  1  0
 20 42  1  0
 20 43  1  0
 21 44  1  0
 21 45  1  0
 23 46  1  0
 23 47  1  0
M  END
>  <Energy>  (17) 
308.28429113325041

>  <compound_id>  (17) 
76297

>  <target_id>  (17) 
1

>  <reference_id>  (17) 
27

>  <inspiration_ids>  (17) 
[27, 35]

>  <energy_score>  (17) 
300.67226805319336

>  <distance_score>  (17) 
13.874136018500357

>  <path>  (17) 
/opt/xchem-fragalysis-2/maxwin/BulkDock/SCRATCH/511022/C76297-P27/C76297-P27.minimised.mol

>  <scratch_subdir>  (17) 
/opt/xchem-fragalysis-2/maxwin/BulkDock/SCRATCH/511022/C76297-P27

>  <fragmenstein_runtime>  (17) 
32.22516703605652

>  <fragmenstein_outcome>  (17) 
too moved

>  <fragmenstein_mode>  (17) 
expansion

>  <fragmenstein_error>  (17) 


$$$$
C76297-P35
     RDKit          3D

 47 49  0  0  0  0  0  0  0  0999 V2000
    5.2470   -5.5594   20.4413 C   0  0  0  0  0  0  0  0  0  0  0  0
    3.7671   -5.4884   20.0486 C   0  0  0  0  0  0  0  0  0  0  0  0
    3.0526   -6.8354   19.6423 C   0  0  0  0  0  0  0  0  0  0  0  0
    3.3645   -7.1894   18.1594 C   0  0  0  0  0  0  0  0  0  0  0  0
    4.8227   -7.1913   17.7119 C   0  0  0  0  0  0  0  0  0  0  0  0
    1.4566   -6.6921   19.8027 C   0  0  0  0  0  0  0  0  0  0  0  0
    1.0187   -5.5867   19.6185 O   0  0  0  0  0  0  0  0  0  0  0  0
    0.7651   -7.9646   20.0575 N   0  0  0  0  0  0  0  0  0  0  0  0
   -0.7081   -8.3041   20.0693 C   0  0  0  0  0  0  0  0  0  0  0  0
   -1.1193   -9.7138   19.5664 C   0  0  0  0  0  0  0  0  0  0  0  0
   -1.3675  -10.1582   21.0338 C   0  0  0  0  0  0  0  0  0  0  0  0
   -2.4496  -11.2501   21.3091 N   0  0  0  0  0  0  0  0  0  0  0  0
   -3.2935  -11.5024   22.5029 C   0  0  0  0  0  0  0  0  0  0  0  0
   -3.4091  -10.8772   23.5214 O   0  0  0  0  0  0  0  0  0  0  0  0
   -4.0607  -12.8112   22.4903 C   0  0  0  0  0  0  0  0  0  0  0  0
   -4.5760  -13.6199   21.4690 C   0  0  0  0  0  0  0  0  0  0  0  0
   -5.2433  -14.7573   21.9251 N   0  0  0  0  0  0  0  0  0  0  0  0
   -5.1035  -14.6993   23.2144 C   0  0  0  0  0  0  0  0  0  0  0  0
   -4.4414  -13.5738   23.6086 N   0  0  0  0  0  0  0  0  0  0  0  0
   -4.1603  -13.5008   25.0312 C   0  0  0  0  0  0  0  0  0  0  0  0
   -5.0520  -14.5302   25.7555 C   0  0  0  0  0  0  0  0  0  0  0  0
   -5.5635  -15.7560   24.4978 S   0  0  0  0  0  0  0  0  0  0  0  0
   -1.4412   -8.6683   21.4045 C   0  0  0  0  0  0  0  0  0  0  0  0
    5.3997   -6.3242   21.2093 H   0  0  0  0  0  0  0  0  0  0  0  0
    5.9085   -5.7810   19.6055 H   0  0  0  0  0  0  0  0  0  0  0  0
    5.5623   -4.5984   20.8604 H   0  0  0  0  0  0  0  0  0  0  0  0
    3.2348   -5.0832   20.9196 H   0  0  0  0  0  0  0  0  0  0  0  0
    3.6373   -4.7484   19.2496 H   0  0  0  0  0  0  0  0  0  0  0  0
    3.3917   -7.6366   20.3092 H   0  0  0  0  0  0  0  0  0  0  0  0
    2.9488   -8.1870   17.9652 H   0  0  0  0  0  0  0  0  0  0  0  0
    2.8069   -6.5095   17.5019 H   0  0  0  0  0  0  0  0  0  0  0  0
    5.4460   -7.7584   18.4087 H   0  0  0  0  0  0  0  0  0  0  0  0
    5.2086   -6.1773   17.6069 H   0  0  0  0  0  0  0  0  0  0  0  0
    4.9034   -7.6640   16.7272 H   0  0  0  0  0  0  0  0  0  0  0  0
    1.4529   -8.7189   20.0834 H   0  0  0  0  0  0  0  0  0  0  0  0
   -1.2347   -7.5094   19.5241 H   0  0  0  0  0  0  0  0  0  0  0  0
   -0.3619  -10.2595   19.0069 H   0  0  0  0  0  0  0  0  0  0  0  0
   -2.0337   -9.6996   18.9597 H   0  0  0  0  0  0  0  0  0  0  0  0
   -0.4338  -10.5034   21.4785 H   0  0  0  0  0  0  0  0  0  0  0  0
   -2.5406  -12.0313   20.6664 H   0  0  0  0  0  0  0  0  0  0  0  0
   -4.5209  -13.4326   20.4039 H   0  0  0  0  0  0  0  0  0  0  0  0
   -3.0999  -13.7468   25.1465 H   0  0  0  0  0  0  0  0  0  0  0  0
   -4.3488  -12.4845   25.3857 H   0  0  0  0  0  0  0  0  0  0  0  0
   -4.5263  -15.0056   26.5883 H   0  0  0  0  0  0  0  0  0  0  0  0
   -5.9524  -14.0423   26.1429 H   0  0  0  0  0  0  0  0  0  0  0  0
   -2.4653   -8.2803   21.4564 H   0  0  0  0  0  0  0  0  0  0  0  0
   -0.9170   -8.3857   22.3223 H   0  0  0  0  0  0  0  0  0  0  0  0
  1  2  1  0
  2  3  1  0
  3  4  1  0
  4  5  1  0
  3  6  1  0
  6  7  2  0
  6  8  1  0
  8  9  1  0
  9 10  1  0
 10 11  1  0
 11 12  1  0
 12 13  1  0
 13 14  2  0
 13 15  1  0
 15 16  2  0
 16 17  1  0
 17 18  2  0
 18 19  1  0
 19 20  1  0
 20 21  1  0
 21 22  1  0
 11 23  1  0
 23  9  1  0
 19 15  1  0
 22 18  1  0
  1 24  1  0
  1 25  1  0
  1 26  1  0
  2 27  1  0
  2 28  1  0
  3 29  1  0
  4 30  1  0
  4 31  1  0
  5 32  1  0
  5 33  1  0
  5 34  1  0
  8 35  1  0
  9 36  1  0
 10 37  1  0
 10 38  1  0
 11 39  1  0
 12 40  1  0
 16 41  1  0
 20 42  1  0
 20 43  1  0
 21 44  1  0
 21 45  1  0
 23 46  1  0
 23 47  1  0
M  END
>  <Energy>  (18) 
2.551062245507663

>  <compound_id>  (18) 
76297

>  <target_id>  (18) 
1

>  <reference_id>  (18) 
35

>  <inspiration_ids>  (18) 
[27, 35]

>  <energy_score>  (18) 
-5.060960834541675

>  <distance_score>  (18) 
15.005496585896953

>  <path>  (18) 
/opt/xchem-fragalysis-2/maxwin/BulkDock/SCRATCH/511022/C76297-P35/C76297-P35.minimised.mol

>  <scratch_subdir>  (18) 
/opt/xchem-fragalysis-2/maxwin/BulkDock/SCRATCH/511022/C76297-P35

>  <fragmenstein_runtime>  (18) 
50.41396737098694

>  <fragmenstein_outcome>  (18) 
too moved

>  <fragmenstein_mode>  (18) 
expansion

>  <fragmenstein_error>  (18) 


$$$$
C76298-P27
     RDKit          3D

 55 57  0  0  0  0  0  0  0  0999 V2000
   13.3863   -6.2988   23.4316 C   0  0  0  0  0  0  0  0  0  0  0  0
   12.4344   -7.3002   24.1053 C   0  0  0  0  0  0  0  0  0  0  0  0
   11.5266   -6.8639   25.3330 C   0  0  0  0  0  0  0  0  0  0  0  0
   11.3749   -5.3306   25.3877 C   0  0  0  0  0  0  0  0  0  0  0  0
   12.4841   -4.5966   26.1164 C   0  0  0  0  0  0  0  0  0  0  0  0
   10.1109   -7.6719   25.3277 C   0  0  0  0  0  0  0  0  0  0  0  0
    9.9073   -8.3942   24.3902 O   0  0  0  0  0  0  0  0  0  0  0  0
    9.2927   -7.3807   26.4916 N   0  0  0  0  0  0  0  0  0  0  0  0
    7.9921   -7.9557   26.9404 C   0  0  0  0  0  0  0  0  0  0  0  0
    6.7886   -7.4969   26.0848 C   0  0  0  0  0  0  0  0  0  0  0  0
    5.3903   -7.5985   26.7975 C   0  0  0  0  0  0  0  0  0  0  0  0
    5.3037   -8.7123   27.8807 C   0  0  0  0  0  0  0  0  0  0  0  0
    3.9267   -9.1068   28.4457 N   0  0  0  0  0  0  0  0  0  0  0  0
    2.5941   -9.1039   27.8247 C   0  0  0  0  0  0  0  0  0  0  0  0
    2.2375   -8.7157   26.7464 O   0  0  0  0  0  0  0  0  0  0  0  0
    1.4455   -9.8170   28.6402 C   0  0  0  0  0  0  0  0  0  0  0  0
    0.2068  -10.1978   28.0673 C   0  0  0  0  0  0  0  0  0  0  0  0
   -0.5177  -10.7709   29.0536 N   0  0  0  0  0  0  0  0  0  0  0  0
    0.2083  -10.7405   30.2002 C   0  0  0  0  0  0  0  0  0  0  0  0
    1.4247  -10.2466   29.9943 N   0  0  0  0  0  0  0  0  0  0  0  0
   -0.5870  -11.2974   31.3354 C   0  0  0  0  0  0  0  0  0  0  0  0
   -1.8311  -11.9149   30.6380 C   0  0  0  0  0  0  0  0  0  0  0  0
   -1.8491  -11.3396   29.2063 C   0  0  0  0  0  0  0  0  0  0  0  0
    6.3936   -8.4015   28.9411 C   0  0  0  0  0  0  0  0  0  0  0  0
    7.6829   -7.6873   28.4152 C   0  0  0  0  0  0  0  0  0  0  0  0
   13.8764   -6.7885   22.5822 H   0  0  0  0  0  0  0  0  0  0  0  0
   12.8797   -5.4156   23.0391 H   0  0  0  0  0  0  0  0  0  0  0  0
   14.1807   -5.9928   24.1159 H   0  0  0  0  0  0  0  0  0  0  0  0
   11.8174   -7.7228   23.3070 H   0  0  0  0  0  0  0  0  0  0  0  0
   13.0401   -8.1489   24.4517 H   0  0  0  0  0  0  0  0  0  0  0  0
   12.0320   -7.2010   26.2487 H   0  0  0  0  0  0  0  0  0  0  0  0
   10.4293   -5.0613   25.8683 H   0  0  0  0  0  0  0  0  0  0  0  0
   11.3701   -4.9151   24.3865 H   0  0  0  0  0  0  0  0  0  0  0  0
   13.4708   -4.7726   25.6883 H   0  0  0  0  0  0  0  0  0  0  0  0
   12.2996   -3.5174   26.0923 H   0  0  0  0  0  0  0  0  0  0  0  0
   12.5180   -4.9035   27.1671 H   0  0  0  0  0  0  0  0  0  0  0  0
    9.8172   -6.7859   27.1241 H   0  0  0  0  0  0  0  0  0  0  0  0
    8.1025   -9.0390   26.8024 H   0  0  0  0  0  0  0  0  0  0  0  0
    6.7636   -8.1004   25.1685 H   0  0  0  0  0  0  0  0  0  0  0  0
    6.9281   -6.4587   25.7579 H   0  0  0  0  0  0  0  0  0  0  0  0
    5.1715   -6.6352   27.2773 H   0  0  0  0  0  0  0  0  0  0  0  0
    4.6175   -7.7247   26.0330 H   0  0  0  0  0  0  0  0  0  0  0  0
    5.6296   -9.6426   27.4006 H   0  0  0  0  0  0  0  0  0  0  0  0
    3.8755   -9.5902   29.3399 H   0  0  0  0  0  0  0  0  0  0  0  0
   -0.1640  -10.0656   27.0608 H   0  0  0  0  0  0  0  0  0  0  0  0
   -0.0416  -12.0443   31.9163 H   0  0  0  0  0  0  0  0  0  0  0  0
   -0.8913  -10.4858   32.0047 H   0  0  0  0  0  0  0  0  0  0  0  0
   -2.7547  -11.6855   31.1796 H   0  0  0  0  0  0  0  0  0  0  0  0
   -1.7458  -13.0065   30.6129 H   0  0  0  0  0  0  0  0  0  0  0  0
   -2.5684  -10.5225   29.0995 H   0  0  0  0  0  0  0  0  0  0  0  0
   -2.0024  -12.1024   28.4393 H   0  0  0  0  0  0  0  0  0  0  0  0
    6.6836   -9.3457   29.4200 H   0  0  0  0  0  0  0  0  0  0  0  0
    5.9623   -7.7847   29.7397 H   0  0  0  0  0  0  0  0  0  0  0  0
    8.5310   -7.9867   29.0432 H   0  0  0  0  0  0  0  0  0  0  0  0
    7.5681   -6.6054   28.5654 H   0  0  0  0  0  0  0  0  0  0  0  0
  1  2  1  0
  2  3  1  0
  3  4  1  0
  4  5  1  0
  3  6  1  0
  6  7  2  0
  6  8  1  0
  8  9  1  0
  9 10  1  0
 10 11  1  0
 11 12  1  0
 12 13  1  0
 13 14  1  0
 14 15  2  0
 14 16  1  0
 16 17  2  0
 17 18  1  0
 18 19  1  0
 19 20  2  0
 19 21  1  0
 21 22  1  0
 22 23  1  0
 12 24  1  0
 24 25  1  0
 25  9  1  0
 20 16  1  0
 23 18  1  0
  1 26  1  0
  1 27  1  0
  1 28  1  0
  2 29  1  0
  2 30  1  0
  3 31  1  0
  4 32  1  0
  4 33  1  0
  5 34  1  0
  5 35  1  0
  5 36  1  0
  8 37  1  0
  9 38  1  0
 10 39  1  0
 10 40  1  0
 11 41  1  0
 11 42  1  0
 12 43  1  0
 13 44  1  0
 17 45  1  0
 21 46  1  0
 21 47  1  0
 22 48  1  0
 22 49  1  0
 23 50  1  0
 23 51  1  0
 24 52  1  0
 24 53  1  0
 25 54  1  0
 25 55  1  0
M  END
>  <Energy>  (19) 
61.534296443318944

>  <compound_id>  (19) 
76298

>  <target_id>  (19) 
1

>  <reference_id>  (19) 
27

>  <inspiration_ids>  (19) 
[27, 35]

>  <energy_score>  (19) 
-3.137516186557093

>  <distance_score>  (19) 
14.50074689863058

>  <path>  (19) 
/opt/xchem-fragalysis-2/maxwin/BulkDock/SCRATCH/511022/C76298-P27/C76298-P27.minimised.mol

>  <scratch_subdir>  (19) 
/opt/xchem-fragalysis-2/maxwin/BulkDock/SCRATCH/511022/C76298-P27

>  <fragmenstein_runtime>  (19) 
69.16950011253357

>  <fragmenstein_outcome>  (19) 
too moved

>  <fragmenstein_mode>  (19) 
expansion

>  <fragmenstein_error>  (19) 


$$$$
C76298-P35
     RDKit          3D

 55 57  0  0  0  0  0  0  0  0999 V2000
   13.5546   -8.9063   22.3168 C   0  0  0  0  0  0  0  0  0  0  0  0
   13.2437   -9.5172   23.6914 C   0  0  0  0  0  0  0  0  0  0  0  0
   11.7356   -9.5486   24.0698 C   0  0  0  0  0  0  0  0  0  0  0  0
   11.1618   -8.1355   24.0226 C   0  0  0  0  0  0  0  0  0  0  0  0
   12.0011   -7.0472   24.6910 C   0  0  0  0  0  0  0  0  0  0  0  0
   11.3795  -10.3019   25.4065 C   0  0  0  0  0  0  0  0  0  0  0  0
   12.2734  -10.6696   26.1141 O   0  0  0  0  0  0  0  0  0  0  0  0
    9.9363  -10.5110   25.5090 N   0  0  0  0  0  0  0  0  0  0  0  0
    9.1430  -11.3162   26.4539 C   0  0  0  0  0  0  0  0  0  0  0  0
    8.3049  -10.5158   27.4692 C   0  0  0  0  0  0  0  0  0  0  0  0
    7.2935  -11.4736   28.2152 C   0  0  0  0  0  0  0  0  0  0  0  0
    6.1212  -12.0794   27.2594 C   0  0  0  0  0  0  0  0  0  0  0  0
    4.8793  -13.2061   27.8777 N   0  0  0  0  0  0  0  0  0  0  0  0
    3.9559  -14.5579   27.0844 C   0  0  0  0  0  0  0  0  0  0  0  0
    4.0924  -14.7455   25.9116 O   0  0  0  0  0  0  0  0  0  0  0  0
    2.6330  -15.8105   27.8123 C   0  0  0  0  0  0  0  0  0  0  0  0
    1.9616  -16.9813   27.3267 C   0  0  0  0  0  0  0  0  0  0  0  0
    0.6030  -17.3506   28.0024 N   0  0  0  0  0  0  0  0  0  0  0  0
    0.6070  -16.8999   29.2629 C   0  0  0  0  0  0  0  0  0  0  0  0
    1.5523  -16.0304   29.2154 N   0  0  0  0  0  0  0  0  0  0  0  0
   -0.5327  -17.3182   30.1069 C   0  0  0  0  0  0  0  0  0  0  0  0
   -1.2545  -18.3083   29.1666 C   0  0  0  0  0  0  0  0  0  0  0  0
   -0.8142  -17.8037   27.7724 C   0  0  0  0  0  0  0  0  0  0  0  0
    6.7330  -11.9957   25.8604 C   0  0  0  0  0  0  0  0  0  0  0  0
    8.2284  -12.2988   25.7060 C   0  0  0  0  0  0  0  0  0  0  0  0
   14.6340   -8.9348   22.1360 H   0  0  0  0  0  0  0  0  0  0  0  0
   13.0725   -9.5081   21.5434 H   0  0  0  0  0  0  0  0  0  0  0  0
   13.2275   -7.8705   22.2137 H   0  0  0  0  0  0  0  0  0  0  0  0
   13.8213   -8.9960   24.4639 H   0  0  0  0  0  0  0  0  0  0  0  0
   13.6187  -10.5489   23.6966 H   0  0  0  0  0  0  0  0  0  0  0  0
   11.2351  -10.1397   23.2876 H   0  0  0  0  0  0  0  0  0  0  0  0
   10.1584   -8.1126   24.4599 H   0  0  0  0  0  0  0  0  0  0  0  0
   11.0606   -7.9263   22.9625 H   0  0  0  0  0  0  0  0  0  0  0  0
   12.9018   -6.8018   24.1237 H   0  0  0  0  0  0  0  0  0  0  0  0
   11.4360   -6.1192   24.8105 H   0  0  0  0  0  0  0  0  0  0  0  0
   12.3052   -7.3627   25.6948 H   0  0  0  0  0  0  0  0  0  0  0  0
    9.4873  -10.1270   24.6889 H   0  0  0  0  0  0  0  0  0  0  0  0
    9.8822  -11.9041   27.0135 H   0  0  0  0  0  0  0  0  0  0  0  0
    7.7605   -9.6960   26.9859 H   0  0  0  0  0  0  0  0  0  0  0  0
    8.9731  -10.0530   28.2054 H   0  0  0  0  0  0  0  0  0  0  0  0
    6.8228  -10.9375   29.0481 H   0  0  0  0  0  0  0  0  0  0  0  0
    7.9386  -12.2418   28.6489 H   0  0  0  0  0  0  0  0  0  0  0  0
    5.5019  -11.1805   27.3255 H   0  0  0  0  0  0  0  0  0  0  0  0
    4.7232  -13.2460   28.8197 H   0  0  0  0  0  0  0  0  0  0  0  0
    2.3588  -17.6430   26.5746 H   0  0  0  0  0  0  0  0  0  0  0  0
   -0.2162  -17.8004   31.0349 H   0  0  0  0  0  0  0  0  0  0  0  0
   -1.1726  -16.4617   30.3400 H   0  0  0  0  0  0  0  0  0  0  0  0
   -0.9046  -19.3297   29.3520 H   0  0  0  0  0  0  0  0  0  0  0  0
   -2.3404  -18.2917   29.2986 H   0  0  0  0  0  0  0  0  0  0  0  0
   -0.9442  -18.4495   26.9100 H   0  0  0  0  0  0  0  0  0  0  0  0
   -1.4465  -16.9240   27.6214 H   0  0  0  0  0  0  0  0  0  0  0  0
    6.1146  -12.5664   25.2309 H   0  0  0  0  0  0  0  0  0  0  0  0
    6.6364  -10.9657   25.4940 H   0  0  0  0  0  0  0  0  0  0  0  0
    8.4926  -12.3458   24.6436 H   0  0  0  0  0  0  0  0  0  0  0  0
    8.3916  -13.2884   26.1182 H   0  0  0  0  0  0  0  0  0  0  0  0
  1  2  1  0
  2  3  1  0
  3  4  1  0
  4  5  1  0
  3  6  1  0
  6  7  2  0
  6  8  1  0
  8  9  1  0
  9 10  1  0
 10 11  1  0
 11 12  1  0
 12 13  1  0
 13 14  1  0
 14 15  2  0
 14 16  1  0
 16 17  2  0
 17 18  1  0
 18 19  1  0
 19 20  2  0
 19 21  1  0
 21 22  1  0
 22 23  1  0
 12 24  1  0
 24 25  1  0
 25  9  1  0
 20 16  1  0
 23 18  1  0
  1 26  1  0
  1 27  1  0
  1 28  1  0
  2 29  1  0
  2 30  1  0
  3 31  1  0
  4 32  1  0
  4 33  1  0
  5 34  1  0
  5 35  1  0
  5 36  1  0
  8 37  1  0
  9 38  1  0
 10 39  1  0
 10 40  1  0
 11 41  1  0
 11 42  1  0
 12 43  1  0
 13 44  1  0
 17 45  1  0
 21 46  1  0
 21 47  1  0
 22 48  1  0
 22 49  1  0
 23 50  1  0
 23 51  1  0
 24 52  1  0
 24 53  1  0
 25 54  1  0
 25 55  1  0
M  END
>  <Energy>  (20) 
351.86841573920418

>  <compound_id>  (20) 
76298

>  <target_id>  (20) 
1

>  <reference_id>  (20) 
35

>  <inspiration_ids>  (20) 
[27, 35]

>  <energy_score>  (20) 
287.1966031093193

>  <distance_score>  (20) 
13.01139680476752

>  <path>  (20) 
/opt/xchem-fragalysis-2/maxwin/BulkDock/SCRATCH/511022/C76298-P35/C76298-P35.minimised.mol

>  <scratch_subdir>  (20) 
/opt/xchem-fragalysis-2/maxwin/BulkDock/SCRATCH/511022/C76298-P35

>  <fragmenstein_runtime>  (20) 
41.617573499679565

>  <fragmenstein_outcome>  (20) 
too moved

>  <fragmenstein_mode>  (20) 
expansion

>  <fragmenstein_error>  (20) 


$$$$
C76299-P27
     RDKit          3D

 55 57  0  0  0  0  0  0  0  0999 V2000
   15.7220   -6.9044   21.2021 C   0  0  0  0  0  0  0  0  0  0  0  0
   14.7507   -6.9098   22.3828 C   0  0  0  0  0  0  0  0  0  0  0  0
   13.2312   -6.9405   22.0260 C   0  0  0  0  0  0  0  0  0  0  0  0
   13.0116   -5.8749   20.8946 C   0  0  0  0  0  0  0  0  0  0  0  0
   13.1815   -4.4227   21.3461 C   0  0  0  0  0  0  0  0  0  0  0  0
   12.5847   -8.5027   22.1263 C   0  0  0  0  0  0  0  0  0  0  0  0
   13.2820   -9.3051   22.6856 O   0  0  0  0  0  0  0  0  0  0  0  0
   11.2252   -8.6273   21.6018 N   0  0  0  0  0  0  0  0  0  0  0  0
   10.2210   -9.7757   21.6830 C   0  0  0  0  0  0  0  0  0  0  0  0
    9.3340   -9.8629   20.4133 C   0  0  0  0  0  0  0  0  0  0  0  0
    7.8793  -10.4241   20.5242 C   0  0  0  0  0  0  0  0  0  0  0  0
    7.0632   -9.6718   21.5845 C   0  0  0  0  0  0  0  0  0  0  0  0
    5.5749   -9.8575   21.7127 N   0  0  0  0  0  0  0  0  0  0  0  0
    4.4911   -9.6472   20.7429 C   0  0  0  0  0  0  0  0  0  0  0  0
    4.5310   -9.3522   19.5830 O   0  0  0  0  0  0  0  0  0  0  0  0
    3.1221   -9.7282   21.3713 C   0  0  0  0  0  0  0  0  0  0  0  0
    2.6867   -9.2983   22.6261 C   0  0  0  0  0  0  0  0  0  0  0  0
    1.3383   -9.4967   22.8902 N   0  0  0  0  0  0  0  0  0  0  0  0
    0.8714   -9.8093   21.7172 C   0  0  0  0  0  0  0  0  0  0  0  0
    1.8873   -9.9838   20.8046 N   0  0  0  0  0  0  0  0  0  0  0  0
    1.3703   -9.9725   19.4488 C   0  0  0  0  0  0  0  0  0  0  0  0
   -0.1653  -10.0818   19.6201 C   0  0  0  0  0  0  0  0  0  0  0  0
   -0.4707   -9.7248   21.0858 C   0  0  0  0  0  0  0  0  0  0  0  0
    7.8188   -9.9120   22.9255 C   0  0  0  0  0  0  0  0  0  0  0  0
    9.3797   -9.7244   22.9850 C   0  0  0  0  0  0  0  0  0  0  0  0
   15.7552   -5.9381   20.6916 H   0  0  0  0  0  0  0  0  0  0  0  0
   16.7372   -7.0985   21.5656 H   0  0  0  0  0  0  0  0  0  0  0  0
   15.4727   -7.6897   20.4823 H   0  0  0  0  0  0  0  0  0  0  0  0
   15.0067   -7.7538   23.0322 H   0  0  0  0  0  0  0  0  0  0  0  0
   14.9557   -6.0167   22.9874 H   0  0  0  0  0  0  0  0  0  0  0  0
   12.7515   -6.5135   22.9226 H   0  0  0  0  0  0  0  0  0  0  0  0
   12.0393   -5.9485   20.4346 H   0  0  0  0  0  0  0  0  0  0  0  0
   13.7252   -5.9894   20.0830 H   0  0  0  0  0  0  0  0  0  0  0  0
   14.2045   -4.2222   21.6771 H   0  0  0  0  0  0  0  0  0  0  0  0
   12.9718   -3.7412   20.5168 H   0  0  0  0  0  0  0  0  0  0  0  0
   12.5089   -4.1819   22.1726 H   0  0  0  0  0  0  0  0  0  0  0  0
   10.9817   -7.7839   21.1223 H   0  0  0  0  0  0  0  0  0  0  0  0
   10.8380  -10.6817   21.7323 H   0  0  0  0  0  0  0  0  0  0  0  0
    9.2437   -8.8611   19.9993 H   0  0  0  0  0  0  0  0  0  0  0  0
    9.8702  -10.4601   19.6666 H   0  0  0  0  0  0  0  0  0  0  0  0
    7.9130  -11.4946   20.7595 H   0  0  0  0  0  0  0  0  0  0  0  0
    7.3902  -10.3331   19.5472 H   0  0  0  0  0  0  0  0  0  0  0  0
    7.0916   -8.6228   21.2959 H   0  0  0  0  0  0  0  0  0  0  0  0
    5.1799  -10.1778   22.5852 H   0  0  0  0  0  0  0  0  0  0  0  0
    3.3023   -8.7707   23.3440 H   0  0  0  0  0  0  0  0  0  0  0  0
    1.6484   -9.0122   19.0017 H   0  0  0  0  0  0  0  0  0  0  0  0
    1.8044  -10.7897   18.8703 H   0  0  0  0  0  0  0  0  0  0  0  0
   -0.5086  -11.0918   19.3785 H   0  0  0  0  0  0  0  0  0  0  0  0
   -0.6879   -9.4133   18.9269 H   0  0  0  0  0  0  0  0  0  0  0  0
   -1.2293  -10.3880   21.4957 H   0  0  0  0  0  0  0  0  0  0  0  0
   -0.8429   -8.6968   21.1541 H   0  0  0  0  0  0  0  0  0  0  0  0
    7.3681   -9.2853   23.7064 H   0  0  0  0  0  0  0  0  0  0  0  0
    7.6083  -10.9440   23.2396 H   0  0  0  0  0  0  0  0  0  0  0  0
    9.7650  -10.5042   23.6578 H   0  0  0  0  0  0  0  0  0  0  0  0
    9.5964   -8.7998   23.5352 H   0  0  0  0  0  0  0  0  0  0  0  0
  1  2  1  0
  2  3  1  0
  3  4  1  0
  4  5  1  0
  3  6  1  0
  6  7  2  0
  6  8  1  0
  8  9  1  0
  9 10  1  0
 10 11  1  0
 11 12  1  0
 12 13  1  0
 13 14  1  0
 14 15  2  0
 14 16  1  0
 16 17  2  0
 17 18  1  0
 18 19  2  0
 19 20  1  0
 20 21  1  0
 21 22  1  0
 22 23  1  0
 12 24  1  0
 24 25  1  0
 25  9  1  0
 20 16  1  0
 23 19  1  0
  1 26  1  0
  1 27  1  0
  1 28  1  0
  2 29  1  0
  2 30  1  0
  3 31  1  0
  4 32  1  0
  4 33  1  0
  5 34  1  0
  5 35  1  0
  5 36  1  0
  8 37  1  0
  9 38  1  0
 10 39  1  0
 10 40  1  0
 11 41  1  0
 11 42  1  0
 12 43  1  0
 13 44  1  0
 17 45  1  0
 21 46  1  0
 21 47  1  0
 22 48  1  0
 22 49  1  0
 23 50  1  0
 23 51  1  0
 24 52  1  0
 24 53  1  0
 25 54  1  0
 25 55  1  0
M  END
>  <Energy>  (21) 
26.281765956477564

>  <compound_id>  (21) 
76299

>  <target_id>  (21) 
1

>  <reference_id>  (21) 
27

>  <inspiration_ids>  (21) 
[27, 35]

>  <energy_score>  (21) 
11.005602101318914

>  <distance_score>  (21) 
15.661684814859926

>  <path>  (21) 
/opt/xchem-fragalysis-2/maxwin/BulkDock/SCRATCH/511022/C76299-P27/C76299-P27.minimised.mol

>  <scratch_subdir>  (21) 
/opt/xchem-fragalysis-2/maxwin/BulkDock/SCRATCH/511022/C76299-P27

>  <fragmenstein_runtime>  (21) 
41.408286333084106

>  <fragmenstein_outcome>  (21) 
too moved

>  <fragmenstein_mode>  (21) 
expansion

>  <fragmenstein_error>  (21) 


$$$$
C76299-P35
     RDKit          3D

 55 57  0  0  0  0  0  0  0  0999 V2000
   11.7456   -7.7438   24.7110 C   0  0  0  0  0  0  0  0  0  0  0  0
   10.7197   -8.7674   24.2285 C   0  0  0  0  0  0  0  0  0  0  0  0
    9.4408   -9.0360   25.1129 C   0  0  0  0  0  0  0  0  0  0  0  0
    8.3915   -7.9037   25.0194 C   0  0  0  0  0  0  0  0  0  0  0  0
    8.7115   -6.6182   25.7611 C   0  0  0  0  0  0  0  0  0  0  0  0
    8.7431  -10.3554   24.5926 C   0  0  0  0  0  0  0  0  0  0  0  0
    8.8635  -10.5755   23.4179 O   0  0  0  0  0  0  0  0  0  0  0  0
    7.9904  -11.0648   25.6180 N   0  0  0  0  0  0  0  0  0  0  0  0
    7.2281  -12.3166   25.5549 C   0  0  0  0  0  0  0  0  0  0  0  0
    5.9447  -12.5149   26.2910 C   0  0  0  0  0  0  0  0  0  0  0  0
    4.7226  -13.8247   25.8253 C   0  0  0  0  0  0  0  0  0  0  0  0
    5.1448  -15.2007   25.4814 C   0  0  0  0  0  0  0  0  0  0  0  0
    3.6231  -16.5200   25.9422 N   0  0  0  0  0  0  0  0  0  0  0  0
    2.6428  -17.7709   24.8523 C   0  0  0  0  0  0  0  0  0  0  0  0
    3.1082  -17.8300   23.8194 O   0  0  0  0  0  0  0  0  0  0  0  0
    0.9254  -18.7932   24.8482 C   0  0  0  0  0  0  0  0  0  0  0  0
   -0.4632  -18.3621   25.8959 C   0  0  0  0  0  0  0  0  0  0  0  0
   -2.0349  -18.7502   25.0442 N   0  0  0  0  0  0  0  0  0  0  0  0
   -1.8077  -19.5073   23.7021 C   0  0  0  0  0  0  0  0  0  0  0  0
   -0.0688  -19.4420   23.4181 N   0  0  0  0  0  0  0  0  0  0  0  0
    0.0361  -20.2223   22.1871 C   0  0  0  0  0  0  0  0  0  0  0  0
   -1.1996  -21.1915   22.2177 C   0  0  0  0  0  0  0  0  0  0  0  0
   -2.4461  -20.4428   22.7773 C   0  0  0  0  0  0  0  0  0  0  0  0
    7.1326  -15.1835   25.9289 C   0  0  0  0  0  0  0  0  0  0  0  0
    7.9765  -13.5115   26.0536 C   0  0  0  0  0  0  0  0  0  0  0  0
   12.6545   -7.8238   24.1046 H   0  0  0  0  0  0  0  0  0  0  0  0
   12.0220   -7.9467   25.7506 H   0  0  0  0  0  0  0  0  0  0  0  0
   11.4150   -6.7114   24.6457 H   0  0  0  0  0  0  0  0  0  0  0  0
   11.2585   -9.7235   24.1598 H   0  0  0  0  0  0  0  0  0  0  0  0
   10.4330   -8.5360   23.2006 H   0  0  0  0  0  0  0  0  0  0  0  0
    9.7502   -9.1962   26.1522 H   0  0  0  0  0  0  0  0  0  0  0  0
    8.1508   -7.6807   23.9833 H   0  0  0  0  0  0  0  0  0  0  0  0
    7.4474   -8.2777   25.4397 H   0  0  0  0  0  0  0  0  0  0  0  0
    8.7534   -6.8123   26.8385 H   0  0  0  0  0  0  0  0  0  0  0  0
    9.6535   -6.1558   25.4857 H   0  0  0  0  0  0  0  0  0  0  0  0
    7.9173   -5.8833   25.5924 H   0  0  0  0  0  0  0  0  0  0  0  0
    8.0496  -10.5484   26.4891 H   0  0  0  0  0  0  0  0  0  0  0  0
    7.0430  -12.3267   24.4885 H   0  0  0  0  0  0  0  0  0  0  0  0
    5.6160  -11.4960   26.4432 H   0  0  0  0  0  0  0  0  0  0  0  0
    6.1298  -12.6820   27.3439 H   0  0  0  0  0  0  0  0  0  0  0  0
    4.1475  -14.0172   26.7562 H   0  0  0  0  0  0  0  0  0  0  0  0
    3.9746  -13.6575   25.0416 H   0  0  0  0  0  0  0  0  0  0  0  0
    5.0546  -15.3813   24.3983 H   0  0  0  0  0  0  0  0  0  0  0  0
    3.2311  -16.5580   26.8943 H   0  0  0  0  0  0  0  0  0  0  0  0
   -0.5619  -17.8774   26.8577 H   0  0  0  0  0  0  0  0  0  0  0  0
    0.9822  -20.7314   22.0547 H   0  0  0  0  0  0  0  0  0  0  0  0
   -0.0908  -19.5078   21.3653 H   0  0  0  0  0  0  0  0  0  0  0  0
   -1.4017  -21.5997   21.2221 H   0  0  0  0  0  0  0  0  0  0  0  0
   -0.9668  -22.0404   22.8738 H   0  0  0  0  0  0  0  0  0  0  0  0
   -3.1350  -21.1306   23.2721 H   0  0  0  0  0  0  0  0  0  0  0  0
   -2.9652  -19.9109   21.9756 H   0  0  0  0  0  0  0  0  0  0  0  0
    7.8484  -15.5523   25.2230 H   0  0  0  0  0  0  0  0  0  0  0  0
    7.5155  -15.8663   26.6800 H   0  0  0  0  0  0  0  0  0  0  0  0
    8.8775  -13.5502   25.4230 H   0  0  0  0  0  0  0  0  0  0  0  0
    8.2837  -13.3612   27.0975 H   0  0  0  0  0  0  0  0  0  0  0  0
  1  2  1  0
  2  3  1  0
  3  4  1  0
  4  5  1  0
  3  6  1  0
  6  7  2  0
  6  8  1  0
  8  9  1  0
  9 10  1  0
 10 11  1  0
 11 12  1  0
 12 13  1  0
 13 14  1  0
 14 15  2  0
 14 16  1  0
 16 17  2  0
 17 18  1  0
 18 19  2  0
 19 20  1  0
 20 21  1  0
 21 22  1  0
 22 23  1  0
 12 24  1  0
 24 25  1  0
 25  9  1  0
 20 16  1  0
 23 19  1  0
  1 26  1  0
  1 27  1  0
  1 28  1  0
  2 29  1  0
  2 30  1  0
  3 31  1  0
  4 32  1  0
  4 33  1  0
  5 34  1  0
  5 35  1  0
  5 36  1  0
  8 37  1  0
  9 38  1  0
 10 39  1  0
 10 40  1  0
 11 41  1  0
 11 42  1  0
 12 43  1  0
 13 44  1  0
 17 45  1  0
 21 46  1  0
 21 47  1  0
 22 48  1  0
 22 49  1  0
 23 50  1  0
 23 51  1  0
 24 52  1  0
 24 53  1  0
 25 54  1  0
 25 55  1  0
M  END
>  <Energy>  (22) 
691.88010487730105

>  <compound_id>  (22) 
76299

>  <target_id>  (22) 
1

>  <reference_id>  (22) 
35

>  <inspiration_ids>  (22) 
[27, 35]

>  <energy_score>  (22) 
676.6039410221251

>  <distance_score>  (22) 
13.611798757956567

>  <path>  (22) 
/opt/xchem-fragalysis-2/maxwin/BulkDock/SCRATCH/511022/C76299-P35/C76299-P35.minimised.mol

>  <scratch_subdir>  (22) 
/opt/xchem-fragalysis-2/maxwin/BulkDock/SCRATCH/511022/C76299-P35

>  <fragmenstein_runtime>  (22) 
41.38442897796631

>  <fragmenstein_outcome>  (22) 
too moved

>  <fragmenstein_mode>  (22) 
expansion

>  <fragmenstein_error>  (22) 


$$$$
C76300-P27
     RDKit          3D

 52 54  0  0  0  0  0  0  0  0999 V2000
   10.6640   -9.7740   22.0667 C   0  0  0  0  0  0  0  0  0  0  0  0
   10.6230  -11.3088   21.9815 C   0  0  0  0  0  0  0  0  0  0  0  0
    9.2056  -11.9809   21.8767 C   0  0  0  0  0  0  0  0  0  0  0  0
    8.3670  -11.2704   20.7628 C   0  0  0  0  0  0  0  0  0  0  0  0
    9.0115  -11.1091   19.3852 C   0  0  0  0  0  0  0  0  0  0  0  0
    9.3392  -13.5698   21.6727 C   0  0  0  0  0  0  0  0  0  0  0  0
    9.2594  -13.9783   20.5473 O   0  0  0  0  0  0  0  0  0  0  0  0
    9.6430  -14.2735   22.9263 N   0  0  0  0  0  0  0  0  0  0  0  0
   10.0524  -15.7083   23.1852 C   0  0  0  0  0  0  0  0  0  0  0  0
   11.2761  -15.8712   22.2249 C   0  0  0  0  0  0  0  0  0  0  0  0
   10.7088  -16.5520   20.9620 C   0  0  0  0  0  0  0  0  0  0  0  0
    9.3131  -17.1117   21.3389 C   0  0  0  0  0  0  0  0  0  0  0  0
    9.3454  -17.1253   22.8622 C   0  0  0  0  0  0  0  0  0  0  0  0
    8.3822  -17.9665   23.6635 N   0  0  0  0  0  0  0  0  0  0  0  0
    7.8440  -19.3372   23.4145 C   0  0  0  0  0  0  0  0  0  0  0  0
    7.9850  -20.0690   22.4745 O   0  0  0  0  0  0  0  0  0  0  0  0
    7.0709  -19.9912   24.5570 C   0  0  0  0  0  0  0  0  0  0  0  0
    7.2321  -19.9686   25.9492 C   0  0  0  0  0  0  0  0  0  0  0  0
    6.3349  -20.7804   26.6494 N   0  0  0  0  0  0  0  0  0  0  0  0
    5.6918  -21.4074   25.7064 C   0  0  0  0  0  0  0  0  0  0  0  0
    6.0551  -20.9412   24.4696 N   0  0  0  0  0  0  0  0  0  0  0  0
    5.3315  -21.6289   23.4152 C   0  0  0  0  0  0  0  0  0  0  0  0
    4.7578  -22.8778   24.1343 C   0  0  0  0  0  0  0  0  0  0  0  0
    4.7750  -22.5688   25.6458 C   0  0  0  0  0  0  0  0  0  0  0  0
   10.2988   -9.2952   21.1570 H   0  0  0  0  0  0  0  0  0  0  0  0
   10.0637   -9.4289   22.9136 H   0  0  0  0  0  0  0  0  0  0  0  0
   11.6945   -9.4399   22.2249 H   0  0  0  0  0  0  0  0  0  0  0  0
   11.2424  -11.6353   21.1368 H   0  0  0  0  0  0  0  0  0  0  0  0
   11.1179  -11.7112   22.8748 H   0  0  0  0  0  0  0  0  0  0  0  0
    8.6733  -11.8316   22.8253 H   0  0  0  0  0  0  0  0  0  0  0  0
    7.4260  -11.8207   20.6366 H   0  0  0  0  0  0  0  0  0  0  0  0
    8.0862  -10.2741   21.1265 H   0  0  0  0  0  0  0  0  0  0  0  0
   10.0005  -10.6560   19.4387 H   0  0  0  0  0  0  0  0  0  0  0  0
    8.3746  -10.4844   18.7517 H   0  0  0  0  0  0  0  0  0  0  0  0
    9.1182  -12.0765   18.8864 H   0  0  0  0  0  0  0  0  0  0  0  0
    9.7083  -13.5981   23.6785 H   0  0  0  0  0  0  0  0  0  0  0  0
   10.3887  -15.7171   24.2282 H   0  0  0  0  0  0  0  0  0  0  0  0
   11.7982  -14.9382   21.9860 H   0  0  0  0  0  0  0  0  0  0  0  0
   12.0174  -16.5356   22.6882 H   0  0  0  0  0  0  0  0  0  0  0  0
   10.6510  -15.8768   20.1051 H   0  0  0  0  0  0  0  0  0  0  0  0
   11.3741  -17.3716   20.6650 H   0  0  0  0  0  0  0  0  0  0  0  0
    8.5066  -16.4683   20.9743 H   0  0  0  0  0  0  0  0  0  0  0  0
    9.1663  -18.1070   20.9086 H   0  0  0  0  0  0  0  0  0  0  0  0
   10.1879  -17.8122   23.0663 H   0  0  0  0  0  0  0  0  0  0  0  0
    7.9956  -17.6101   24.5264 H   0  0  0  0  0  0  0  0  0  0  0  0
    7.9714  -19.3961   26.4968 H   0  0  0  0  0  0  0  0  0  0  0  0
    4.5503  -20.9620   23.0455 H   0  0  0  0  0  0  0  0  0  0  0  0
    6.0231  -21.8986   22.6139 H   0  0  0  0  0  0  0  0  0  0  0  0
    5.4265  -23.7278   23.9418 H   0  0  0  0  0  0  0  0  0  0  0  0
    3.7733  -23.1715   23.7612 H   0  0  0  0  0  0  0  0  0  0  0  0
    5.1711  -23.4191   26.2096 H   0  0  0  0  0  0  0  0  0  0  0  0
    3.7821  -22.3515   26.0228 H   0  0  0  0  0  0  0  0  0  0  0  0
  1  2  1  0
  2  3  1  0
  3  4  1  0
  4  5  1  0
  3  6  1  0
  6  7  2  0
  6  8  1  0
  8  9  1  0
  9 10  1  0
 10 11  1  0
 11 12  1  0
 12 13  1  0
 13 14  1  0
 14 15  1  0
 15 16  2  0
 15 17  1  0
 17 18  2  0
 18 19  1  0
 19 20  2  0
 20 21  1  0
 21 22  1  0
 22 23  1  0
 23 24  1  0
 13  9  1  0
 21 17  1  0
 24 20  1  0
  1 25  1  0
  1 26  1  0
  1 27  1  0
  2 28  1  0
  2 29  1  0
  3 30  1  0
  4 31  1  0
  4 32  1  0
  5 33  1  0
  5 34  1  0
  5 35  1  0
  8 36  1  0
  9 37  1  0
 10 38  1  0
 10 39  1  0
 11 40  1  0
 11 41  1  0
 12 42  1  0
 12 43  1  0
 13 44  1  0
 14 45  1  0
 18 46  1  0
 22 47  1  0
 22 48  1  0
 23 49  1  0
 23 50  1  0
 24 51  1  0
 24 52  1  0
M  END
>  <Energy>  (23) 
51.473310576157303

>  <compound_id>  (23) 
76300

>  <target_id>  (23) 
1

>  <reference_id>  (23) 
27

>  <inspiration_ids>  (23) 
[27, 35]

>  <energy_score>  (23) 
38.0408069051349

>  <distance_score>  (23) 
15.196039229654376

>  <path>  (23) 
/opt/xchem-fragalysis-2/maxwin/BulkDock/SCRATCH/511022/C76300-P27/C76300-P27.minimised.mol

>  <scratch_subdir>  (23) 
/opt/xchem-fragalysis-2/maxwin/BulkDock/SCRATCH/511022/C76300-P27

>  <fragmenstein_runtime>  (23) 
76.98042345046997

>  <fragmenstein_outcome>  (23) 
too moved

>  <fragmenstein_mode>  (23) 
expansion

>  <fragmenstein_error>  (23) 


$$$$
C76300-P35
     RDKit          3D

 52 54  0  0  0  0  0  0  0  0999 V2000
    5.9298   -7.7714   22.6069 C   0  0  0  0  0  0  0  0  0  0  0  0
    6.3937   -9.1708   23.0362 C   0  0  0  0  0  0  0  0  0  0  0  0
    5.7750  -10.3850   22.2798 C   0  0  0  0  0  0  0  0  0  0  0  0
    5.7355  -10.1253   20.7372 C   0  0  0  0  0  0  0  0  0  0  0  0
    7.0863   -9.8608   20.0697 C   0  0  0  0  0  0  0  0  0  0  0  0
    4.3443  -10.7860   22.8614 C   0  0  0  0  0  0  0  0  0  0  0  0
    3.3930  -10.2674   22.3443 O   0  0  0  0  0  0  0  0  0  0  0  0
    4.4318  -11.6741   24.0247 N   0  0  0  0  0  0  0  0  0  0  0  0
    3.3743  -12.1350   24.9961 C   0  0  0  0  0  0  0  0  0  0  0  0
    3.0898  -10.8991   25.8544 C   0  0  0  0  0  0  0  0  0  0  0  0
    4.2419  -10.8803   26.8466 C   0  0  0  0  0  0  0  0  0  0  0  0
    4.7081  -12.3351   26.9580 C   0  0  0  0  0  0  0  0  0  0  0  0
    3.7485  -13.2351   26.1310 C   0  0  0  0  0  0  0  0  0  0  0  0
    2.4638  -13.8443   26.9175 N   0  0  0  0  0  0  0  0  0  0  0  0
    2.1969  -15.5012   27.7528 C   0  0  0  0  0  0  0  0  0  0  0  0
    3.0913  -16.2916   27.8446 O   0  0  0  0  0  0  0  0  0  0  0  0
    0.6981  -16.1846   28.5402 C   0  0  0  0  0  0  0  0  0  0  0  0
    0.6893  -16.3509   30.0274 C   0  0  0  0  0  0  0  0  0  0  0  0
   -0.4491  -15.5088   30.7349 N   0  0  0  0  0  0  0  0  0  0  0  0
   -1.4350  -15.1413   29.9139 C   0  0  0  0  0  0  0  0  0  0  0  0
   -1.0011  -15.4052   28.4300 N   0  0  0  0  0  0  0  0  0  0  0  0
   -2.3467  -15.3916   27.6117 C   0  0  0  0  0  0  0  0  0  0  0  0
   -3.4674  -14.9888   28.6435 C   0  0  0  0  0  0  0  0  0  0  0  0
   -2.8571  -14.7219   30.0423 C   0  0  0  0  0  0  0  0  0  0  0  0
    4.8475   -7.6757   22.7412 H   0  0  0  0  0  0  0  0  0  0  0  0
    6.4101   -7.0120   23.2322 H   0  0  0  0  0  0  0  0  0  0  0  0
    6.1587   -7.5466   21.5647 H   0  0  0  0  0  0  0  0  0  0  0  0
    7.4813   -9.2374   22.9460 H   0  0  0  0  0  0  0  0  0  0  0  0
    6.1788   -9.2811   24.1066 H   0  0  0  0  0  0  0  0  0  0  0  0
    6.4270  -11.2529   22.4473 H   0  0  0  0  0  0  0  0  0  0  0  0
    5.0462   -9.3059   20.5019 H   0  0  0  0  0  0  0  0  0  0  0  0
    5.2977  -11.0162   20.2673 H   0  0  0  0  0  0  0  0  0  0  0  0
    7.8124  -10.6317   20.3456 H   0  0  0  0  0  0  0  0  0  0  0  0
    6.9690   -9.8827   18.9831 H   0  0  0  0  0  0  0  0  0  0  0  0
    7.4928   -8.8897   20.3416 H   0  0  0  0  0  0  0  0  0  0  0  0
    5.3897  -11.9892   24.1301 H   0  0  0  0  0  0  0  0  0  0  0  0
    2.4921  -12.4147   24.4145 H   0  0  0  0  0  0  0  0  0  0  0  0
    3.0236   -9.9633   25.2902 H   0  0  0  0  0  0  0  0  0  0  0  0
    2.1417  -11.0264   26.3910 H   0  0  0  0  0  0  0  0  0  0  0  0
    3.9119  -10.4899   27.8150 H   0  0  0  0  0  0  0  0  0  0  0  0
    5.0613  -10.2430   26.4956 H   0  0  0  0  0  0  0  0  0  0  0  0
    4.8087  -12.6154   27.9970 H   0  0  0  0  0  0  0  0  0  0  0  0
    5.7135  -12.3916   26.5208 H   0  0  0  0  0  0  0  0  0  0  0  0
    4.2698  -14.0790   25.6786 H   0  0  0  0  0  0  0  0  0  0  0  0
    1.5873  -13.3614   26.8574 H   0  0  0  0  0  0  0  0  0  0  0  0
    1.4663  -16.7883   30.6123 H   0  0  0  0  0  0  0  0  0  0  0  0
   -2.3374  -14.6871   26.7900 H   0  0  0  0  0  0  0  0  0  0  0  0
   -2.5326  -16.3893   27.1900 H   0  0  0  0  0  0  0  0  0  0  0  0
   -4.2321  -15.7689   28.6958 H   0  0  0  0  0  0  0  0  0  0  0  0
   -3.9935  -14.0947   28.2883 H   0  0  0  0  0  0  0  0  0  0  0  0
   -2.9588  -13.6638   30.2974 H   0  0  0  0  0  0  0  0  0  0  0  0
   -3.3716  -15.2445   30.8429 H   0  0  0  0  0  0  0  0  0  0  0  0
  1  2  1  0
  2  3  1  0
  3  4  1  0
  4  5  1  0
  3  6  1  0
  6  7  2  0
  6  8  1  0
  8  9  1  0
  9 10  1  0
 10 11  1  0
 11 12  1  0
 12 13  1  0
 13 14  1  0
 14 15  1  0
 15 16  2  0
 15 17  1  0
 17 18  2  0
 18 19  1  0
 19 20  2  0
 20 21  1  0
 21 22  1  0
 22 23  1  0
 23 24  1  0
 13  9  1  0
 21 17  1  0
 24 20  1  0
  1 25  1  0
  1 26  1  0
  1 27  1  0
  2 28  1  0
  2 29  1  0
  3 30  1  0
  4 31  1  0
  4 32  1  0
  5 33  1  0
  5 34  1  0
  5 35  1  0
  8 36  1  0
  9 37  1  0
 10 38  1  0
 10 39  1  0
 11 40  1  0
 11 41  1  0
 12 42  1  0
 12 43  1  0
 13 44  1  0
 14 45  1  0
 18 46  1  0
 22 47  1  0
 22 48  1  0
 23 49  1  0
 23 50  1  0
 24 51  1  0
 24 52  1  0
M  END
>  <Energy>  (24) 
275.93979366279473

>  <compound_id>  (24) 
76300

>  <target_id>  (24) 
1

>  <reference_id>  (24) 
35

>  <inspiration_ids>  (24) 
[27, 35]

>  <energy_score>  (24) 
262.5072899917782

>  <distance_score>  (24) 
14.110762375946917

>  <path>  (24) 
/opt/xchem-fragalysis-2/maxwin/BulkDock/SCRATCH/511022/C76300-P35/C76300-P35.minimised.mol

>  <scratch_subdir>  (24) 
/opt/xchem-fragalysis-2/maxwin/BulkDock/SCRATCH/511022/C76300-P35

>  <fragmenstein_runtime>  (24) 
42.67902636528015

>  <fragmenstein_outcome>  (24) 
too moved

>  <fragmenstein_mode>  (24) 
expansion

>  <fragmenstein_error>  (24) 


$$$$
C76304-P27
     RDKit          3D

 55 57  0  0  0  0  0  0  0  0999 V2000
   10.5616  -10.8798   20.3190 C   0  0  0  0  0  0  0  0  0  0  0  0
    9.9954   -9.8556   21.2831 C   0  0  0  0  0  0  0  0  0  0  0  0
   10.8239   -9.7212   22.5828 C   0  0  0  0  0  0  0  0  0  0  0  0
   11.9082   -8.6161   22.3806 C   0  0  0  0  0  0  0  0  0  0  0  0
   13.3018   -9.1526   22.0960 C   0  0  0  0  0  0  0  0  0  0  0  0
    9.8785   -9.4379   23.8203 C   0  0  0  0  0  0  0  0  0  0  0  0
    9.8209   -8.3237   24.2494 O   0  0  0  0  0  0  0  0  0  0  0  0
    9.2200  -10.6465   24.2525 N   0  0  0  0  0  0  0  0  0  0  0  0
    8.3541  -10.9090   25.4062 C   0  0  0  0  0  0  0  0  0  0  0  0
    7.9824  -12.3712   25.5242 C   0  0  0  0  0  0  0  0  0  0  0  0
    6.1666  -12.2962   25.6685 C   0  0  0  0  0  0  0  0  0  0  0  0
    5.0810  -13.2883   25.7148 N   0  0  0  0  0  0  0  0  0  0  0  0
    3.5401  -13.6028   24.7774 C   0  0  0  0  0  0  0  0  0  0  0  0
    3.5929  -14.3309   23.7920 O   0  0  0  0  0  0  0  0  0  0  0  0
    1.8287  -12.8812   24.9430 C   0  0  0  0  0  0  0  0  0  0  0  0
    1.2364  -11.8686   24.1609 C   0  0  0  0  0  0  0  0  0  0  0  0
   -0.1213  -11.7419   24.3542 N   0  0  0  0  0  0  0  0  0  0  0  0
   -0.3920  -12.4103   25.4438 C   0  0  0  0  0  0  0  0  0  0  0  0
    0.7903  -12.8899   25.9912 N   0  0  0  0  0  0  0  0  0  0  0  0
    0.8188  -13.1926   27.4262 C   0  0  0  0  0  0  0  0  0  0  0  0
   -0.5379  -13.3677   28.1732 C   0  0  0  0  0  0  0  0  0  0  0  0
   -1.6432  -12.4831   27.6150 C   0  0  0  0  0  0  0  0  0  0  0  0
   -1.7360  -12.5955   26.0965 C   0  0  0  0  0  0  0  0  0  0  0  0
    5.9081  -11.6870   24.9516 C   0  0  0  0  0  0  0  0  0  0  0  0
    6.9641  -10.2887   25.3744 C   0  0  0  0  0  0  0  0  0  0  0  0
    9.9764  -10.9004   19.3952 H   0  0  0  0  0  0  0  0  0  0  0  0
   11.6056  -10.7075   20.0649 H   0  0  0  0  0  0  0  0  0  0  0  0
   10.5005  -11.8811   20.7603 H   0  0  0  0  0  0  0  0  0  0  0  0
    8.9665  -10.1526   21.5198 H   0  0  0  0  0  0  0  0  0  0  0  0
    9.9205   -8.9072   20.7488 H   0  0  0  0  0  0  0  0  0  0  0  0
   11.3332  -10.6683   22.8067 H   0  0  0  0  0  0  0  0  0  0  0  0
   11.9847   -7.9745   23.2647 H   0  0  0  0  0  0  0  0  0  0  0  0
   11.6470   -7.9798   21.5375 H   0  0  0  0  0  0  0  0  0  0  0  0
   13.9841   -8.3321   21.8524 H   0  0  0  0  0  0  0  0  0  0  0  0
   13.3152   -9.8675   21.2712 H   0  0  0  0  0  0  0  0  0  0  0  0
   13.6971   -9.6648   22.9797 H   0  0  0  0  0  0  0  0  0  0  0  0
    9.5686  -11.4258   23.7064 H   0  0  0  0  0  0  0  0  0  0  0  0
    8.8990  -10.5491   26.2852 H   0  0  0  0  0  0  0  0  0  0  0  0
    8.2967  -12.9672   24.6680 H   0  0  0  0  0  0  0  0  0  0  0  0
    8.4100  -12.7858   26.4461 H   0  0  0  0  0  0  0  0  0  0  0  0
    6.5458  -13.0632   26.4142 H   0  0  0  0  0  0  0  0  0  0  0  0
    6.0086  -11.7228   26.7502 H   0  0  0  0  0  0  0  0  0  0  0  0
    1.7256  -11.2966   23.3818 H   0  0  0  0  0  0  0  0  0  0  0  0
    1.3013  -12.3295   27.8938 H   0  0  0  0  0  0  0  0  0  0  0  0
    1.4408  -14.0759   27.5410 H   0  0  0  0  0  0  0  0  0  0  0  0
   -0.8829  -14.4020   28.1559 H   0  0  0  0  0  0  0  0  0  0  0  0
   -0.3839  -13.1415   29.2356 H   0  0  0  0  0  0  0  0  0  0  0  0
   -2.6047  -12.7396   28.0732 H   0  0  0  0  0  0  0  0  0  0  0  0
   -1.4291  -11.4411   27.8858 H   0  0  0  0  0  0  0  0  0  0  0  0
   -2.1486  -13.5691   25.8097 H   0  0  0  0  0  0  0  0  0  0  0  0
   -2.4285  -11.8347   25.7184 H   0  0  0  0  0  0  0  0  0  0  0  0
    5.0007  -11.1228   24.5319 H   0  0  0  0  0  0  0  0  0  0  0  0
    6.3963  -11.8462   23.9053 H   0  0  0  0  0  0  0  0  0  0  0  0
    6.8487   -9.5480   24.5753 H   0  0  0  0  0  0  0  0  0  0  0  0
    6.6429   -9.8526   26.3281 H   0  0  0  0  0  0  0  0  0  0  0  0
  1  2  1  0
  2  3  1  0
  3  4  1  0
  4  5  1  0
  3  6  1  0
  6  7  2  0
  6  8  1  0
  8  9  1  0
  9 10  1  0
 10 11  1  0
 11 12  1  0
 12 13  1  0
 13 14  2  0
 13 15  1  0
 15 16  2  0
 16 17  1  0
 17 18  2  0
 18 19  1  0
 19 20  1  0
 20 21  1  0
 21 22  1  0
 22 23  1  0
 12 24  1  0
 24 25  1  0
 25  9  1  0
 19 15  1  0
 23 18  1  0
  1 26  1  0
  1 27  1  0
  1 28  1  0
  2 29  1  0
  2 30  1  0
  3 31  1  0
  4 32  1  0
  4 33  1  0
  5 34  1  0
  5 35  1  0
  5 36  1  0
  8 37  1  0
  9 38  1  0
 10 39  1  0
 10 40  1  0
 11 41  1  0
 11 42  1  0
 16 43  1  0
 20 44  1  0
 20 45  1  0
 21 46  1  0
 21 47  1  0
 22 48  1  0
 22 49  1  0
 23 50  1  0
 23 51  1  0
 24 52  1  0
 24 53  1  0
 25 54  1  0
 25 55  1  0
M  END
>  <Energy>  (25) 
738.40033587275514

>  <compound_id>  (25) 
76304

>  <target_id>  (25) 
1

>  <reference_id>  (25) 
27

>  <inspiration_ids>  (25) 
[27, 35]

>  <energy_score>  (25) 
722.6045339102559

>  <distance_score>  (25) 
14.373775942619883

>  <path>  (25) 
/opt/xchem-fragalysis-2/maxwin/BulkDock/SCRATCH/511022/C76304-P27/C76304-P27.minimised.mol

>  <scratch_subdir>  (25) 
/opt/xchem-fragalysis-2/maxwin/BulkDock/SCRATCH/511022/C76304-P27

>  <fragmenstein_runtime>  (25) 
53.29501032829285

>  <fragmenstein_outcome>  (25) 
too moved

>  <fragmenstein_mode>  (25) 
expansion

>  <fragmenstein_error>  (25) 


$$$$
C76304-P35
     RDKit          3D

 55 57  0  0  0  0  0  0  0  0999 V2000
   12.4562   -8.1685   22.2175 C   0  0  0  0  0  0  0  0  0  0  0  0
   11.8533   -9.3389   22.9879 C   0  0  0  0  0  0  0  0  0  0  0  0
   10.7602   -9.0311   24.0649 C   0  0  0  0  0  0  0  0  0  0  0  0
   11.2272   -7.9247   25.0275 C   0  0  0  0  0  0  0  0  0  0  0  0
   12.6262   -8.1127   25.5865 C   0  0  0  0  0  0  0  0  0  0  0  0
   10.2626  -10.3704   24.7723 C   0  0  0  0  0  0  0  0  0  0  0  0
   10.8682  -11.3731   24.5160 O   0  0  0  0  0  0  0  0  0  0  0  0
    9.0767  -10.1626   25.5914 N   0  0  0  0  0  0  0  0  0  0  0  0
    8.3159  -11.0922   26.4304 C   0  0  0  0  0  0  0  0  0  0  0  0
    7.1491  -10.5876   27.2574 C   0  0  0  0  0  0  0  0  0  0  0  0
    6.0029  -12.0079   27.1116 C   0  0  0  0  0  0  0  0  0  0  0  0
    5.0227  -12.7661   27.8670 N   0  0  0  0  0  0  0  0  0  0  0  0
    3.6157  -13.8940   27.4598 C   0  0  0  0  0  0  0  0  0  0  0  0
    3.8473  -15.0891   27.3561 O   0  0  0  0  0  0  0  0  0  0  0  0
    1.7751  -13.5852   27.3417 C   0  0  0  0  0  0  0  0  0  0  0  0
    0.8745  -12.7196   26.6390 C   0  0  0  0  0  0  0  0  0  0  0  0
   -0.4282  -12.5940   27.1108 N   0  0  0  0  0  0  0  0  0  0  0  0
   -0.5636  -13.4255   28.0987 C   0  0  0  0  0  0  0  0  0  0  0  0
    0.5833  -14.1857   28.2479 N   0  0  0  0  0  0  0  0  0  0  0  0
    0.4740  -15.3325   29.1928 C   0  0  0  0  0  0  0  0  0  0  0  0
   -0.9312  -15.9503   29.4797 C   0  0  0  0  0  0  0  0  0  0  0  0
   -2.1220  -15.1741   28.9408 C   0  0  0  0  0  0  0  0  0  0  0  0
   -1.8139  -13.6867   28.8905 C   0  0  0  0  0  0  0  0  0  0  0  0
    5.8252  -12.1754   26.1950 C   0  0  0  0  0  0  0  0  0  0  0  0
    7.6004  -12.1904   25.6554 C   0  0  0  0  0  0  0  0  0  0  0  0
   11.7536   -7.8559   21.4518 H   0  0  0  0  0  0  0  0  0  0  0  0
   12.7236   -7.3161   22.8427 H   0  0  0  0  0  0  0  0  0  0  0  0
   13.3714   -8.4974   21.7144 H   0  0  0  0  0  0  0  0  0  0  0  0
   12.6774   -9.8803   23.4711 H   0  0  0  0  0  0  0  0  0  0  0  0
   11.4346  -10.0473   22.2606 H   0  0  0  0  0  0  0  0  0  0  0  0
    9.8746   -8.6643   23.5409 H   0  0  0  0  0  0  0  0  0  0  0  0
   11.2306   -6.9541   24.5346 H   0  0  0  0  0  0  0  0  0  0  0  0
   10.5296   -7.8374   25.8673 H   0  0  0  0  0  0  0  0  0  0  0  0
   12.7182   -9.0835   26.0843 H   0  0  0  0  0  0  0  0  0  0  0  0
   12.8331   -7.3385   26.3334 H   0  0  0  0  0  0  0  0  0  0  0  0
   13.4094   -8.0421   24.8290 H   0  0  0  0  0  0  0  0  0  0  0  0
    8.8877   -9.1692   25.6538 H   0  0  0  0  0  0  0  0  0  0  0  0
    9.0580  -11.5624   27.0871 H   0  0  0  0  0  0  0  0  0  0  0  0
    7.4080  -10.4264   28.3107 H   0  0  0  0  0  0  0  0  0  0  0  0
    6.6679   -9.7016   26.8238 H   0  0  0  0  0  0  0  0  0  0  0  0
    6.8643  -12.4750   27.6991 H   0  0  0  0  0  0  0  0  0  0  0  0
    5.4848  -11.1879   27.7921 H   0  0  0  0  0  0  0  0  0  0  0  0
    1.0706  -12.1183   25.7615 H   0  0  0  0  0  0  0  0  0  0  0  0
    1.0787  -16.1371   28.7819 H   0  0  0  0  0  0  0  0  0  0  0  0
    0.8443  -14.9835   30.1595 H   0  0  0  0  0  0  0  0  0  0  0  0
   -0.9645  -16.9765   29.0919 H   0  0  0  0  0  0  0  0  0  0  0  0
   -1.0331  -16.0552   30.5680 H   0  0  0  0  0  0  0  0  0  0  0  0
   -2.3622  -15.5317   27.9326 H   0  0  0  0  0  0  0  0  0  0  0  0
   -3.0080  -15.3632   29.5571 H   0  0  0  0  0  0  0  0  0  0  0  0
   -2.6545  -13.1510   28.4355 H   0  0  0  0  0  0  0  0  0  0  0  0
   -1.6839  -13.2884   29.9038 H   0  0  0  0  0  0  0  0  0  0  0  0
    5.4179  -11.2630   25.5388 H   0  0  0  0  0  0  0  0  0  0  0  0
    5.4747  -13.0750   25.6148 H   0  0  0  0  0  0  0  0  0  0  0  0
    7.5906  -12.0107   24.5763 H   0  0  0  0  0  0  0  0  0  0  0  0
    8.0292  -13.1668   25.8943 H   0  0  0  0  0  0  0  0  0  0  0  0
  1  2  1  0
  2  3  1  0
  3  4  1  0
  4  5  1  0
  3  6  1  0
  6  7  2  0
  6  8  1  0
  8  9  1  0
  9 10  1  0
 10 11  1  0
 11 12  1  0
 12 13  1  0
 13 14  2  0
 13 15  1  0
 15 16  2  0
 16 17  1  0
 17 18  2  0
 18 19  1  0
 19 20  1  0
 20 21  1  0
 21 22  1  0
 22 23  1  0
 12 24  1  0
 24 25  1  0
 25  9  1  0
 19 15  1  0
 23 18  1  0
  1 26  1  0
  1 27  1  0
  1 28  1  0
  2 29  1  0
  2 30  1  0
  3 31  1  0
  4 32  1  0
  4 33  1  0
  5 34  1  0
  5 35  1  0
  5 36  1  0
  8 37  1  0
  9 38  1  0
 10 39  1  0
 10 40  1  0
 11 41  1  0
 11 42  1  0
 16 43  1  0
 20 44  1  0
 20 45  1  0
 21 46  1  0
 21 47  1  0
 22 48  1  0
 22 49  1  0
 23 50  1  0
 23 51  1  0
 24 52  1  0
 24 53  1  0
 25 54  1  0
 25 55  1  0
M  END
>  <Energy>  (26) 
771.70408858506789

>  <compound_id>  (26) 
76304

>  <target_id>  (26) 
1

>  <reference_id>  (26) 
35

>  <inspiration_ids>  (26) 
[27, 35]

>  <energy_score>  (26) 
755.90828662257

>  <distance_score>  (26) 
13.904392037299965

>  <path>  (26) 
/opt/xchem-fragalysis-2/maxwin/BulkDock/SCRATCH/511022/C76304-P35/C76304-P35.minimised.mol

>  <scratch_subdir>  (26) 
/opt/xchem-fragalysis-2/maxwin/BulkDock/SCRATCH/511022/C76304-P35

>  <fragmenstein_runtime>  (26) 
48.81357502937317

>  <fragmenstein_outcome>  (26) 
too moved

>  <fragmenstein_mode>  (26) 
expansion

>  <fragmenstein_error>  (26) 


$$$$
C76305-P27
     RDKit          3D

 52 54  0  0  0  0  0  0  0  0999 V2000
    9.4900  -17.1304   17.5890 C   0  0  0  0  0  0  0  0  0  0  0  0
    8.1471  -17.6749   18.1450 C   0  0  0  0  0  0  0  0  0  0  0  0
    7.6109  -16.8661   19.3432 C   0  0  0  0  0  0  0  0  0  0  0  0
    7.4905  -15.3351   18.6402 C   0  0  0  0  0  0  0  0  0  0  0  0
    8.5964  -14.2876   18.8463 C   0  0  0  0  0  0  0  0  0  0  0  0
    6.0253  -17.2006   20.0215 C   0  0  0  0  0  0  0  0  0  0  0  0
    5.1853  -16.7114   19.3267 O   0  0  0  0  0  0  0  0  0  0  0  0
    5.8652  -18.2088   21.4132 N   0  0  0  0  0  0  0  0  0  0  0  0
    4.2347  -19.0630   22.3114 C   0  0  0  0  0  0  0  0  0  0  0  0
    2.7820  -19.5540   21.5512 C   0  0  0  0  0  0  0  0  0  0  0  0
    2.7279  -20.7000   22.8262 C   0  0  0  0  0  0  0  0  0  0  0  0
    3.7653  -22.7518   22.9721 N   0  0  0  0  0  0  0  0  0  0  0  0
    3.0942  -24.3674   23.0331 C   0  0  0  0  0  0  0  0  0  0  0  0
    1.9139  -24.6952   22.9211 O   0  0  0  0  0  0  0  0  0  0  0  0
    3.9287  -25.5651   23.3809 C   0  0  0  0  0  0  0  0  0  0  0  0
    4.3008  -25.5071   24.7584 C   0  0  0  0  0  0  0  0  0  0  0  0
    3.3205  -26.2470   25.3766 N   0  0  0  0  0  0  0  0  0  0  0  0
    2.6997  -27.0263   24.4493 C   0  0  0  0  0  0  0  0  0  0  0  0
    3.2501  -26.8420   23.2652 N   0  0  0  0  0  0  0  0  0  0  0  0
    1.4505  -27.6199   24.9943 C   0  0  0  0  0  0  0  0  0  0  0  0
    1.1729  -26.6934   26.2115 C   0  0  0  0  0  0  0  0  0  0  0  0
    2.5526  -26.1269   26.6122 C   0  0  0  0  0  0  0  0  0  0  0  0
    3.8355  -21.8717   24.9602 C   0  0  0  0  0  0  0  0  0  0  0  0
    4.1237  -19.9962   24.2730 C   0  0  0  0  0  0  0  0  0  0  0  0
    9.9159  -17.8753   16.9074 H   0  0  0  0  0  0  0  0  0  0  0  0
   10.2147  -16.9691   18.3926 H   0  0  0  0  0  0  0  0  0  0  0  0
    9.3719  -16.2126   17.0091 H   0  0  0  0  0  0  0  0  0  0  0  0
    8.2902  -18.7140   18.4657 H   0  0  0  0  0  0  0  0  0  0  0  0
    7.4266  -17.7027   17.3252 H   0  0  0  0  0  0  0  0  0  0  0  0
    8.4564  -16.9795   19.9919 H   0  0  0  0  0  0  0  0  0  0  0  0
    7.3786  -15.4763   17.5559 H   0  0  0  0  0  0  0  0  0  0  0  0
    6.5367  -14.8635   18.8886 H   0  0  0  0  0  0  0  0  0  0  0  0
    9.5862  -14.7407   18.9269 H   0  0  0  0  0  0  0  0  0  0  0  0
    8.4084  -13.6912   19.7418 H   0  0  0  0  0  0  0  0  0  0  0  0
    8.6075  -13.5905   18.0017 H   0  0  0  0  0  0  0  0  0  0  0  0
    6.7841  -18.3863   21.8231 H   0  0  0  0  0  0  0  0  0  0  0  0
    4.4662  -19.3802   21.3300 H   0  0  0  0  0  0  0  0  0  0  0  0
    2.6652  -19.9991   20.5285 H   0  0  0  0  0  0  0  0  0  0  0  0
    1.8384  -19.1090   21.4395 H   0  0  0  0  0  0  0  0  0  0  0  0
    1.5591  -20.6825   22.5609 H   0  0  0  0  0  0  0  0  0  0  0  0
    2.7272  -19.7522   23.3594 H   0  0  0  0  0  0  0  0  0  0  0  0
    4.7845  -24.7051   25.2971 H   0  0  0  0  0  0  0  0  0  0  0  0
    1.6293  -28.6490   25.3210 H   0  0  0  0  0  0  0  0  0  0  0  0
    0.6255  -27.5987   24.2781 H   0  0  0  0  0  0  0  0  0  0  0  0
    0.5229  -25.8675   25.8945 H   0  0  0  0  0  0  0  0  0  0  0  0
    0.6741  -27.2146   27.0336 H   0  0  0  0  0  0  0  0  0  0  0  0
    2.5135  -25.0782   26.9161 H   0  0  0  0  0  0  0  0  0  0  0  0
    3.0536  -26.7442   27.3631 H   0  0  0  0  0  0  0  0  0  0  0  0
    3.1170  -22.3044   25.6626 H   0  0  0  0  0  0  0  0  0  0  0  0
    4.7936  -22.2094   25.4775 H   0  0  0  0  0  0  0  0  0  0  0  0
    3.4265  -19.2915   24.8232 H   0  0  0  0  0  0  0  0  0  0  0  0
    4.7737  -19.9623   25.1722 H   0  0  0  0  0  0  0  0  0  0  0  0
  1  2  1  0
  2  3  1  0
  3  4  1  0
  4  5  1  0
  3  6  1  0
  6  7  2  0
  6  8  1  0
  8  9  1  0
  9 10  1  0
 10 11  1  0
 11 12  1  0
 12 13  1  0
 13 14  2  0
 13 15  1  0
 15 16  2  0
 16 17  1  0
 17 18  1  0
 18 19  2  0
 18 20  1  0
 20 21  1  0
 21 22  1  0
 12 23  1  0
 23 24  1  0
 24  9  1  0
 19 15  1  0
 22 17  1  0
  1 25  1  0
  1 26  1  0
  1 27  1  0
  2 28  1  0
  2 29  1  0
  3 30  1  0
  4 31  1  0
  4 32  1  0
  5 33  1  0
  5 34  1  0
  5 35  1  0
  8 36  1  0
  9 37  1  0
 10 38  1  0
 10 39  1  0
 11 40  1  0
 11 41  1  0
 16 42  1  0
 20 43  1  0
 20 44  1  0
 21 45  1  0
 21 46  1  0
 22 47  1  0
 22 48  1  0
 23 49  1  0
 23 50  1  0
 24 51  1  0
 24 52  1  0
M  END
>  <Energy>  (27) 
1262.2044303809969

>  <compound_id>  (27) 
76305

>  <target_id>  (27) 
1

>  <reference_id>  (27) 
27

>  <inspiration_ids>  (27) 
[27, 35]

>  <energy_score>  (27) 
1194.2978695296763

>  <distance_score>  (27) 
17.07422389763018

>  <path>  (27) 
/opt/xchem-fragalysis-2/maxwin/BulkDock/SCRATCH/511022/C76305-P27/C76305-P27.minimised.mol

>  <scratch_subdir>  (27) 
/opt/xchem-fragalysis-2/maxwin/BulkDock/SCRATCH/511022/C76305-P27

>  <fragmenstein_runtime>  (27) 
48.753315925598145

>  <fragmenstein_outcome>  (27) 
too moved

>  <fragmenstein_mode>  (27) 
expansion

>  <fragmenstein_error>  (27) 


$$$$
C76305-P35
     RDKit          3D

 52 54  0  0  0  0  0  0  0  0999 V2000
   10.6003  -11.6606   18.9905 C   0  0  0  0  0  0  0  0  0  0  0  0
   11.3829  -12.6854   18.1691 C   0  0  0  0  0  0  0  0  0  0  0  0
   10.5647  -13.6208   17.2118 C   0  0  0  0  0  0  0  0  0  0  0  0
    9.6264  -12.7787   16.2962 C   0  0  0  0  0  0  0  0  0  0  0  0
   10.2856  -11.6053   15.5559 C   0  0  0  0  0  0  0  0  0  0  0  0
    9.7845  -14.8161   17.9691 C   0  0  0  0  0  0  0  0  0  0  0  0
    9.2168  -14.5435   18.9933 O   0  0  0  0  0  0  0  0  0  0  0  0
    9.8767  -16.0886   17.2340 N   0  0  0  0  0  0  0  0  0  0  0  0
    9.2110  -17.4206   17.4761 C   0  0  0  0  0  0  0  0  0  0  0  0
    9.7772  -18.5627   16.6305 C   0  0  0  0  0  0  0  0  0  0  0  0
   10.0880  -19.8614   17.4726 C   0  0  0  0  0  0  0  0  0  0  0  0
    9.0117  -20.7589   18.0261 N   0  0  0  0  0  0  0  0  0  0  0  0
    7.7421  -21.2020   17.4411 C   0  0  0  0  0  0  0  0  0  0  0  0
    7.2062  -20.8824   16.4073 O   0  0  0  0  0  0  0  0  0  0  0  0
    6.9176  -22.3657   18.2179 C   0  0  0  0  0  0  0  0  0  0  0  0
    5.6211  -22.7870   17.8065 C   0  0  0  0  0  0  0  0  0  0  0  0
    5.0959  -23.4978   18.8292 N   0  0  0  0  0  0  0  0  0  0  0  0
    6.0404  -23.6376   19.7902 C   0  0  0  0  0  0  0  0  0  0  0  0
    7.1508  -22.9795   19.4736 N   0  0  0  0  0  0  0  0  0  0  0  0
    5.5062  -24.4328   20.9376 C   0  0  0  0  0  0  0  0  0  0  0  0
    4.1911  -25.0212   20.3533 C   0  0  0  0  0  0  0  0  0  0  0  0
    3.8201  -24.1178   19.1578 C   0  0  0  0  0  0  0  0  0  0  0  0
    8.7802  -19.5098   18.9679 C   0  0  0  0  0  0  0  0  0  0  0  0
    9.2731  -17.9767   18.8809 C   0  0  0  0  0  0  0  0  0  0  0  0
    9.8786  -11.1068   18.3933 H   0  0  0  0  0  0  0  0  0  0  0  0
   11.2866  -10.9552   19.4661 H   0  0  0  0  0  0  0  0  0  0  0  0
   10.0427  -12.1613   19.7884 H   0  0  0  0  0  0  0  0  0  0  0  0
   12.1265  -12.1469   17.5687 H   0  0  0  0  0  0  0  0  0  0  0  0
   11.9538  -13.3159   18.8622 H   0  0  0  0  0  0  0  0  0  0  0  0
   11.3111  -14.1048   16.5671 H   0  0  0  0  0  0  0  0  0  0  0  0
    9.1915  -13.4551   15.5492 H   0  0  0  0  0  0  0  0  0  0  0  0
    8.7761  -12.4067   16.8800 H   0  0  0  0  0  0  0  0  0  0  0  0
   11.1317  -11.9577   14.9577 H   0  0  0  0  0  0  0  0  0  0  0  0
    9.5617  -11.1408   14.8786 H   0  0  0  0  0  0  0  0  0  0  0  0
   10.6448  -10.8310   16.2360 H   0  0  0  0  0  0  0  0  0  0  0  0
   10.3703  -15.9332   16.3620 H   0  0  0  0  0  0  0  0  0  0  0  0
    8.1605  -17.2597   17.2063 H   0  0  0  0  0  0  0  0  0  0  0  0
   10.7085  -18.2502   16.1420 H   0  0  0  0  0  0  0  0  0  0  0  0
    9.0712  -18.8117   15.8292 H   0  0  0  0  0  0  0  0  0  0  0  0
   10.9198  -19.7392   18.1871 H   0  0  0  0  0  0  0  0  0  0  0  0
   10.5361  -20.5287   16.7194 H   0  0  0  0  0  0  0  0  0  0  0  0
    5.0517  -22.5236   16.9257 H   0  0  0  0  0  0  0  0  0  0  0  0
    5.3033  -23.7946   21.7979 H   0  0  0  0  0  0  0  0  0  0  0  0
    6.1953  -25.2268   21.2381 H   0  0  0  0  0  0  0  0  0  0  0  0
    3.3924  -25.1267   21.0919 H   0  0  0  0  0  0  0  0  0  0  0  0
    4.4014  -26.0309   19.9751 H   0  0  0  0  0  0  0  0  0  0  0  0
    3.4705  -24.6878   18.2935 H   0  0  0  0  0  0  0  0  0  0  0  0
    3.1196  -23.3184   19.4049 H   0  0  0  0  0  0  0  0  0  0  0  0
    7.7121  -19.4650   19.1686 H   0  0  0  0  0  0  0  0  0  0  0  0
    9.2234  -19.8646   19.9097 H   0  0  0  0  0  0  0  0  0  0  0  0
    8.6477  -17.3772   19.5465 H   0  0  0  0  0  0  0  0  0  0  0  0
   10.2938  -17.9003   19.2798 H   0  0  0  0  0  0  0  0  0  0  0  0
  1  2  1  0
  2  3  1  0
  3  4  1  0
  4  5  1  0
  3  6  1  0
  6  7  2  0
  6  8  1  0
  8  9  1  0
  9 10  1  0
 10 11  1  0
 11 12  1  0
 12 13  1  0
 13 14  2  0
 13 15  1  0
 15 16  2  0
 16 17  1  0
 17 18  1  0
 18 19  2  0
 18 20  1  0
 20 21  1  0
 21 22  1  0
 12 23  1  0
 23 24  1  0
 24  9  1  0
 19 15  1  0
 22 17  1  0
  1 25  1  0
  1 26  1  0
  1 27  1  0
  2 28  1  0
  2 29  1  0
  3 30  1  0
  4 31  1  0
  4 32  1  0
  5 33  1  0
  5 34  1  0
  5 35  1  0
  8 36  1  0
  9 37  1  0
 10 38  1  0
 10 39  1  0
 11 40  1  0
 11 41  1  0
 16 42  1  0
 20 43  1  0
 20 44  1  0
 21 45  1  0
 21 46  1  0
 22 47  1  0
 22 48  1  0
 23 49  1  0
 23 50  1  0
 24 51  1  0
 24 52  1  0
M  END
>  <Energy>  (28) 
143.67719304788184

>  <compound_id>  (28) 
76305

>  <target_id>  (28) 
1

>  <reference_id>  (28) 
35

>  <inspiration_ids>  (28) 
[27, 35]

>  <energy_score>  (28) 
75.77063219656725

>  <distance_score>  (28) 
16.62582788724054

>  <path>  (28) 
/opt/xchem-fragalysis-2/maxwin/BulkDock/SCRATCH/511022/C76305-P35/C76305-P35.minimised.mol

>  <scratch_subdir>  (28) 
/opt/xchem-fragalysis-2/maxwin/BulkDock/SCRATCH/511022/C76305-P35

>  <fragmenstein_runtime>  (28) 
31.597176551818848

>  <fragmenstein_outcome>  (28) 
too moved

>  <fragmenstein_mode>  (28) 
expansion

>  <fragmenstein_error>  (28) 


$$$$
C76307-P27
     RDKit          3D

 55 57  0  0  0  0  0  0  0  0999 V2000
   12.7884   -7.7024   22.9087 C   0  0  0  0  0  0  0  0  0  0  0  0
   12.3255   -8.9031   23.7388 C   0  0  0  0  0  0  0  0  0  0  0  0
   10.8106   -9.2809   23.6705 C   0  0  0  0  0  0  0  0  0  0  0  0
   10.3614   -9.6385   22.2365 C   0  0  0  0  0  0  0  0  0  0  0  0
   11.1993  -10.6700   21.5023 C   0  0  0  0  0  0  0  0  0  0  0  0
   10.4116  -10.3336   24.8172 C   0  0  0  0  0  0  0  0  0  0  0  0
   11.2472  -11.1012   25.2025 O   0  0  0  0  0  0  0  0  0  0  0  0
    9.0495  -10.0996   25.2831 N   0  0  0  0  0  0  0  0  0  0  0  0
    8.3102  -10.6594   26.4313 C   0  0  0  0  0  0  0  0  0  0  0  0
    7.7755  -12.0678   26.5337 C   0  0  0  0  0  0  0  0  0  0  0  0
    6.1590  -11.7975   27.4683 C   0  0  0  0  0  0  0  0  0  0  0  0
    5.4777  -12.9965   27.7153 N   0  0  0  0  0  0  0  0  0  0  0  0
    4.0746  -13.8465   27.0171 C   0  0  0  0  0  0  0  0  0  0  0  0
    4.3082  -14.6319   26.0882 O   0  0  0  0  0  0  0  0  0  0  0  0
    2.3158  -13.9279   27.4874 C   0  0  0  0  0  0  0  0  0  0  0  0
    1.6482  -15.0971   28.0130 C   0  0  0  0  0  0  0  0  0  0  0  0
    0.4945  -14.7151   28.7099 N   0  0  0  0  0  0  0  0  0  0  0  0
    0.1962  -13.4494   28.2817 C   0  0  0  0  0  0  0  0  0  0  0  0
    1.2653  -12.9072   27.6647 N   0  0  0  0  0  0  0  0  0  0  0  0
   -1.1927  -12.9183   28.4961 C   0  0  0  0  0  0  0  0  0  0  0  0
   -2.0021  -13.6955   29.5597 C   0  0  0  0  0  0  0  0  0  0  0  0
   -1.8175  -15.2090   29.4506 C   0  0  0  0  0  0  0  0  0  0  0  0
   -0.3345  -15.5469   29.5828 C   0  0  0  0  0  0  0  0  0  0  0  0
    5.7141  -11.3218   26.7483 C   0  0  0  0  0  0  0  0  0  0  0  0
    6.9799   -9.9881   26.6075 C   0  0  0  0  0  0  0  0  0  0  0  0
   13.8807   -7.6313   22.9480 H   0  0  0  0  0  0  0  0  0  0  0  0
   12.5029   -7.7934   21.8595 H   0  0  0  0  0  0  0  0  0  0  0  0
   12.3949   -6.7763   23.3324 H   0  0  0  0  0  0  0  0  0  0  0  0
   12.9288   -9.7768   23.4640 H   0  0  0  0  0  0  0  0  0  0  0  0
   12.5806   -8.6990   24.7873 H   0  0  0  0  0  0  0  0  0  0  0  0
   10.2729   -8.3658   23.9505 H   0  0  0  0  0  0  0  0  0  0  0  0
   10.3930   -8.7437   21.6139 H   0  0  0  0  0  0  0  0  0  0  0  0
    9.3228   -9.9878   22.2625 H   0  0  0  0  0  0  0  0  0  0  0  0
   11.2222  -11.6139   22.0561 H   0  0  0  0  0  0  0  0  0  0  0  0
   10.7706  -10.8697   20.5147 H   0  0  0  0  0  0  0  0  0  0  0  0
   12.2297  -10.3369   21.3552 H   0  0  0  0  0  0  0  0  0  0  0  0
    8.6007   -9.4318   24.6703 H   0  0  0  0  0  0  0  0  0  0  0  0
    8.9447  -10.4641   27.3037 H   0  0  0  0  0  0  0  0  0  0  0  0
    7.5519  -12.5128   25.5593 H   0  0  0  0  0  0  0  0  0  0  0  0
    8.4151  -12.7502   27.1041 H   0  0  0  0  0  0  0  0  0  0  0  0
    6.0207  -11.0752   28.4805 H   0  0  0  0  0  0  0  0  0  0  0  0
    6.9281  -12.0390   28.2900 H   0  0  0  0  0  0  0  0  0  0  0  0
    1.9604  -16.1375   28.0182 H   0  0  0  0  0  0  0  0  0  0  0  0
   -1.1412  -11.8606   28.7769 H   0  0  0  0  0  0  0  0  0  0  0  0
   -1.7229  -12.9727   27.5374 H   0  0  0  0  0  0  0  0  0  0  0  0
   -1.6795  -13.3698   30.5572 H   0  0  0  0  0  0  0  0  0  0  0  0
   -3.0631  -13.4365   29.4703 H   0  0  0  0  0  0  0  0  0  0  0  0
   -2.1988  -15.5542   28.4824 H   0  0  0  0  0  0  0  0  0  0  0  0
   -2.3898  -15.7212   30.2313 H   0  0  0  0  0  0  0  0  0  0  0  0
    0.0215  -15.3546   30.6013 H   0  0  0  0  0  0  0  0  0  0  0  0
   -0.1481  -16.5987   29.3450 H   0  0  0  0  0  0  0  0  0  0  0  0
    5.6025  -11.5761   25.6184 H   0  0  0  0  0  0  0  0  0  0  0  0
    4.8783  -10.5305   27.0485 H   0  0  0  0  0  0  0  0  0  0  0  0
    6.9390   -9.3726   27.5165 H   0  0  0  0  0  0  0  0  0  0  0  0
    6.6561   -9.3772   25.7561 H   0  0  0  0  0  0  0  0  0  0  0  0
  1  2  1  0
  2  3  1  0
  3  4  1  0
  4  5  1  0
  3  6  1  0
  6  7  2  0
  6  8  1  0
  8  9  1  0
  9 10  1  0
 10 11  1  0
 11 12  1  0
 12 13  1  0
 13 14  2  0
 13 15  1  0
 15 16  2  0
 16 17  1  0
 17 18  1  0
 18 19  2  0
 18 20  1  0
 20 21  1  0
 21 22  1  0
 22 23  1  0
 12 24  1  0
 24 25  1  0
 25  9  1  0
 19 15  1  0
 23 17  1  0
  1 26  1  0
  1 27  1  0
  1 28  1  0
  2 29  1  0
  2 30  1  0
  3 31  1  0
  4 32  1  0
  4 33  1  0
  5 34  1  0
  5 35  1  0
  5 36  1  0
  8 37  1  0
  9 38  1  0
 10 39  1  0
 10 40  1  0
 11 41  1  0
 11 42  1  0
 16 43  1  0
 20 44  1  0
 20 45  1  0
 21 46  1  0
 21 47  1  0
 22 48  1  0
 22 49  1  0
 23 50  1  0
 23 51  1  0
 24 52  1  0
 24 53  1  0
 25 54  1  0
 25 55  1  0
M  END
>  <Energy>  (29) 
767.80060071707396

>  <compound_id>  (29) 
76307

>  <target_id>  (29) 
1

>  <reference_id>  (29) 
27

>  <inspiration_ids>  (29) 
[27, 35]

>  <energy_score>  (29) 
709.5293840880529

>  <distance_score>  (29) 
13.77760066008096

>  <path>  (29) 
/opt/xchem-fragalysis-2/maxwin/BulkDock/SCRATCH/511022/C76307-P27/C76307-P27.minimised.mol

>  <scratch_subdir>  (29) 
/opt/xchem-fragalysis-2/maxwin/BulkDock/SCRATCH/511022/C76307-P27

>  <fragmenstein_runtime>  (29) 
55.15731406211853

>  <fragmenstein_outcome>  (29) 
too moved

>  <fragmenstein_mode>  (29) 
expansion

>  <fragmenstein_error>  (29) 


$$$$
C76307-P35
     RDKit          3D

 55 57  0  0  0  0  0  0  0  0999 V2000
   12.2436   -7.4989   24.2408 C   0  0  0  0  0  0  0  0  0  0  0  0
   11.0496   -8.4305   24.4870 C   0  0  0  0  0  0  0  0  0  0  0  0
   11.0446   -9.7452   23.6834 C   0  0  0  0  0  0  0  0  0  0  0  0
   11.1083   -9.4679   22.1443 C   0  0  0  0  0  0  0  0  0  0  0  0
   11.4099  -10.7077   21.3139 C   0  0  0  0  0  0  0  0  0  0  0  0
    9.7934  -10.6598   24.0405 C   0  0  0  0  0  0  0  0  0  0  0  0
    8.8484  -10.6430   23.3013 O   0  0  0  0  0  0  0  0  0  0  0  0
   10.0623  -11.4714   25.2143 N   0  0  0  0  0  0  0  0  0  0  0  0
    9.3006  -12.6097   25.8157 C   0  0  0  0  0  0  0  0  0  0  0  0
    9.4117  -13.6893   24.7894 C   0  0  0  0  0  0  0  0  0  0  0  0
    8.4981  -15.3348   24.8844 C   0  0  0  0  0  0  0  0  0  0  0  0
    7.7583  -15.7180   26.5650 N   0  0  0  0  0  0  0  0  0  0  0  0
    7.6738  -17.4148   27.6598 C   0  0  0  0  0  0  0  0  0  0  0  0
    8.7234  -17.4660   28.4066 O   0  0  0  0  0  0  0  0  0  0  0  0
    6.6426  -19.2290   27.8678 C   0  0  0  0  0  0  0  0  0  0  0  0
    6.2017  -20.0337   29.4103 C   0  0  0  0  0  0  0  0  0  0  0  0
    5.3564  -21.4880   29.0860 N   0  0  0  0  0  0  0  0  0  0  0  0
    4.8385  -21.3572   27.5716 C   0  0  0  0  0  0  0  0  0  0  0  0
    5.3002  -20.0835   27.0336 N   0  0  0  0  0  0  0  0  0  0  0  0
    4.2920  -22.6580   27.0202 C   0  0  0  0  0  0  0  0  0  0  0  0
    3.3535  -23.4048   28.0053 C   0  0  0  0  0  0  0  0  0  0  0  0
    3.6894  -23.3608   29.5188 C   0  0  0  0  0  0  0  0  0  0  0  0
    4.9711  -22.6089   29.9508 C   0  0  0  0  0  0  0  0  0  0  0  0
    7.1710  -13.8697   26.8533 C   0  0  0  0  0  0  0  0  0  0  0  0
    7.8235  -12.5401   26.0309 C   0  0  0  0  0  0  0  0  0  0  0  0
   13.1739   -8.0032   24.5226 H   0  0  0  0  0  0  0  0  0  0  0  0
   12.3450   -7.1757   23.2069 H   0  0  0  0  0  0  0  0  0  0  0  0
   12.1480   -6.6038   24.8640 H   0  0  0  0  0  0  0  0  0  0  0  0
   10.1034   -7.9122   24.3242 H   0  0  0  0  0  0  0  0  0  0  0  0
   11.0453   -8.6840   25.5554 H   0  0  0  0  0  0  0  0  0  0  0  0
   11.9490  -10.3113   23.9452 H   0  0  0  0  0  0  0  0  0  0  0  0
   11.8700   -8.7225   21.9094 H   0  0  0  0  0  0  0  0  0  0  0  0
   10.1538   -9.0885   21.7942 H   0  0  0  0  0  0  0  0  0  0  0  0
   12.4450  -11.0307   21.4662 H   0  0  0  0  0  0  0  0  0  0  0  0
   10.7547  -11.5425   21.5835 H   0  0  0  0  0  0  0  0  0  0  0  0
   11.2592  -10.5181   20.2481 H   0  0  0  0  0  0  0  0  0  0  0  0
   10.9269  -11.1575   25.6433 H   0  0  0  0  0  0  0  0  0  0  0  0
    9.8236  -12.8294   26.7496 H   0  0  0  0  0  0  0  0  0  0  0  0
    9.0763  -13.1734   23.8599 H   0  0  0  0  0  0  0  0  0  0  0  0
   10.4751  -13.8077   24.5270 H   0  0  0  0  0  0  0  0  0  0  0  0
    8.5810  -14.7248   23.9560 H   0  0  0  0  0  0  0  0  0  0  0  0
    8.2455  -15.8715   23.9624 H   0  0  0  0  0  0  0  0  0  0  0  0
    6.4860  -19.8753   30.4474 H   0  0  0  0  0  0  0  0  0  0  0  0
    3.8092  -22.5299   26.0529 H   0  0  0  0  0  0  0  0  0  0  0  0
    5.1537  -23.3111   26.8276 H   0  0  0  0  0  0  0  0  0  0  0  0
    3.2935  -24.4537   27.6876 H   0  0  0  0  0  0  0  0  0  0  0  0
    2.3352  -23.0178   27.8839 H   0  0  0  0  0  0  0  0  0  0  0  0
    3.7444  -24.3876   29.9029 H   0  0  0  0  0  0  0  0  0  0  0  0
    2.8325  -22.9195   30.0463 H   0  0  0  0  0  0  0  0  0  0  0  0
    5.7996  -23.3211   29.9326 H   0  0  0  0  0  0  0  0  0  0  0  0
    4.8829  -22.2227   30.9707 H   0  0  0  0  0  0  0  0  0  0  0  0
    6.2231  -13.2468   27.0423 H   0  0  0  0  0  0  0  0  0  0  0  0
    7.9543  -13.6933   27.6235 H   0  0  0  0  0  0  0  0  0  0  0  0
    7.2662  -12.3157   25.1162 H   0  0  0  0  0  0  0  0  0  0  0  0
    7.6283  -11.6701   26.6770 H   0  0  0  0  0  0  0  0  0  0  0  0
  1  2  1  0
  2  3  1  0
  3  4  1  0
  4  5  1  0
  3  6  1  0
  6  7  2  0
  6  8  1  0
  8  9  1  0
  9 10  1  0
 10 11  1  0
 11 12  1  0
 12 13  1  0
 13 14  2  0
 13 15  1  0
 15 16  2  0
 16 17  1  0
 17 18  1  0
 18 19  2  0
 18 20  1  0
 20 21  1  0
 21 22  1  0
 22 23  1  0
 12 24  1  0
 24 25  1  0
 25  9  1  0
 19 15  1  0
 23 17  1  0
  1 26  1  0
  1 27  1  0
  1 28  1  0
  2 29  1  0
  2 30  1  0
  3 31  1  0
  4 32  1  0
  4 33  1  0
  5 34  1  0
  5 35  1  0
  5 36  1  0
  8 37  1  0
  9 38  1  0
 10 39  1  0
 10 40  1  0
 11 41  1  0
 11 42  1  0
 16 43  1  0
 20 44  1  0
 20 45  1  0
 21 46  1  0
 21 47  1  0
 22 48  1  0
 22 49  1  0
 23 50  1  0
 23 51  1  0
 24 52  1  0
 24 53  1  0
 25 54  1  0
 25 55  1  0
M  END
>  <Energy>  (30) 
861.46754854197991

>  <compound_id>  (30) 
76307

>  <target_id>  (30) 
1

>  <reference_id>  (30) 
35

>  <inspiration_ids>  (30) 
[27, 35]

>  <energy_score>  (30) 
803.196331912956

>  <distance_score>  (30) 
14.036625289811871

>  <path>  (30) 
/opt/xchem-fragalysis-2/maxwin/BulkDock/SCRATCH/511022/C76307-P35/C76307-P35.minimised.mol

>  <scratch_subdir>  (30) 
/opt/xchem-fragalysis-2/maxwin/BulkDock/SCRATCH/511022/C76307-P35

>  <fragmenstein_runtime>  (30) 
32.34270787239075

>  <fragmenstein_outcome>  (30) 
too moved

>  <fragmenstein_mode>  (30) 
expansion

>  <fragmenstein_error>  (30) 


$$$$
C76308-P27
     RDKit          3D

 52 54  0  0  0  0  0  0  0  0999 V2000
   11.5316   -8.8699   23.8742 C   0  0  0  0  0  0  0  0  0  0  0  0
   10.2158   -9.5425   24.2913 C   0  0  0  0  0  0  0  0  0  0  0  0
   10.0683  -11.0754   23.9741 C   0  0  0  0  0  0  0  0  0  0  0  0
   10.3516  -11.3244   22.4483 C   0  0  0  0  0  0  0  0  0  0  0  0
    9.7106  -10.3880   21.4104 C   0  0  0  0  0  0  0  0  0  0  0  0
    8.6181  -11.6034   24.3818 C   0  0  0  0  0  0  0  0  0  0  0  0
    7.7291  -11.0069   23.8243 O   0  0  0  0  0  0  0  0  0  0  0  0
    8.5649  -12.7494   25.3440 N   0  0  0  0  0  0  0  0  0  0  0  0
    7.3549  -13.4613   26.0038 C   0  0  0  0  0  0  0  0  0  0  0  0
    6.5100  -15.3097   25.6970 C   0  0  0  0  0  0  0  0  0  0  0  0
    4.4721  -15.1078   25.8481 C   0  0  0  0  0  0  0  0  0  0  0  0
    3.6420  -13.9173   25.8494 N   0  0  0  0  0  0  0  0  0  0  0  0
    2.1496  -13.4817   26.8992 C   0  0  0  0  0  0  0  0  0  0  0  0
    2.5098  -12.9287   27.8612 O   0  0  0  0  0  0  0  0  0  0  0  0
    0.2970  -13.4330   26.8568 C   0  0  0  0  0  0  0  0  0  0  0  0
   -1.0696  -14.0856   27.4972 C   0  0  0  0  0  0  0  0  0  0  0  0
   -2.2636  -13.5366   27.1876 N   0  0  0  0  0  0  0  0  0  0  0  0
   -1.8792  -12.3165   27.1006 C   0  0  0  0  0  0  0  0  0  0  0  0
   -0.5076  -12.1680   27.1623 N   0  0  0  0  0  0  0  0  0  0  0  0
   -0.1603  -10.7962   27.4909 C   0  0  0  0  0  0  0  0  0  0  0  0
   -1.4995  -10.2551   28.0460 C   0  0  0  0  0  0  0  0  0  0  0  0
   -2.5993  -11.0564   27.3291 C   0  0  0  0  0  0  0  0  0  0  0  0
    5.0778  -13.5845   25.9943 C   0  0  0  0  0  0  0  0  0  0  0  0
    6.2843  -12.6117   26.6504 C   0  0  0  0  0  0  0  0  0  0  0  0
   11.5618   -7.8443   24.2547 H   0  0  0  0  0  0  0  0  0  0  0  0
   11.6674   -8.8290   22.7928 H   0  0  0  0  0  0  0  0  0  0  0  0
   12.3819   -9.4101   24.3026 H   0  0  0  0  0  0  0  0  0  0  0  0
   10.1014   -9.4229   25.3767 H   0  0  0  0  0  0  0  0  0  0  0  0
    9.3802   -8.9886   23.8512 H   0  0  0  0  0  0  0  0  0  0  0  0
   10.8067  -11.6359   24.5593 H   0  0  0  0  0  0  0  0  0  0  0  0
   10.0364  -12.3494   22.2134 H   0  0  0  0  0  0  0  0  0  0  0  0
   11.4378  -11.2989   22.2945 H   0  0  0  0  0  0  0  0  0  0  0  0
    8.6251  -10.3448   21.5290 H   0  0  0  0  0  0  0  0  0  0  0  0
   10.1091   -9.3753   21.4593 H   0  0  0  0  0  0  0  0  0  0  0  0
    9.9189  -10.7652   20.4033 H   0  0  0  0  0  0  0  0  0  0  0  0
    9.5016  -12.9466   25.6787 H   0  0  0  0  0  0  0  0  0  0  0  0
    6.9602  -12.8907   25.1288 H   0  0  0  0  0  0  0  0  0  0  0  0
    6.3527  -16.0400   24.8721 H   0  0  0  0  0  0  0  0  0  0  0  0
    7.2943  -15.8218   26.2552 H   0  0  0  0  0  0  0  0  0  0  0  0
    4.0859  -15.6961   26.6981 H   0  0  0  0  0  0  0  0  0  0  0  0
    4.3484  -15.3831   24.7819 H   0  0  0  0  0  0  0  0  0  0  0  0
   -1.1221  -14.9861   28.1124 H   0  0  0  0  0  0  0  0  0  0  0  0
    0.6395  -10.7536   28.2309 H   0  0  0  0  0  0  0  0  0  0  0  0
    0.1328  -10.2970   26.5629 H   0  0  0  0  0  0  0  0  0  0  0  0
   -1.6033   -9.1756   27.9017 H   0  0  0  0  0  0  0  0  0  0  0  0
   -1.5472  -10.4518   29.1257 H   0  0  0  0  0  0  0  0  0  0  0  0
   -3.4886  -11.1708   27.9536 H   0  0  0  0  0  0  0  0  0  0  0  0
   -2.8736  -10.5885   26.3787 H   0  0  0  0  0  0  0  0  0  0  0  0
    4.8027  -13.4754   27.0920 H   0  0  0  0  0  0  0  0  0  0  0  0
    5.0992  -12.7645   25.3415 H   0  0  0  0  0  0  0  0  0  0  0  0
    6.2803  -11.5649   26.3017 H   0  0  0  0  0  0  0  0  0  0  0  0
    6.2990  -12.4990   27.7271 H   0  0  0  0  0  0  0  0  0  0  0  0
  1  2  1  0
  2  3  1  0
  3  4  1  0
  4  5  1  0
  3  6  1  0
  6  7  2  0
  6  8  1  0
  8  9  1  0
  9 10  1  0
 10 11  1  0
 11 12  1  0
 12 13  1  0
 13 14  2  0
 13 15  1  0
 15 16  2  0
 16 17  1  0
 17 18  2  0
 18 19  1  0
 19 20  1  0
 20 21  1  0
 21 22  1  0
 12 23  1  0
 23 24  1  0
 24  9  1  0
 19 15  1  0
 22 18  1  0
  1 25  1  0
  1 26  1  0
  1 27  1  0
  2 28  1  0
  2 29  1  0
  3 30  1  0
  4 31  1  0
  4 32  1  0
  5 33  1  0
  5 34  1  0
  5 35  1  0
  8 36  1  0
  9 37  1  0
 10 38  1  0
 10 39  1  0
 11 40  1  0
 11 41  1  0
 16 42  1  0
 20 43  1  0
 20 44  1  0
 21 45  1  0
 21 46  1  0
 22 47  1  0
 22 48  1  0
 23 49  1  0
 23 50  1  0
 24 51  1  0
 24 52  1  0
M  END
>  <Energy>  (31) 
662.34357124479436

>  <compound_id>  (31) 
76308

>  <target_id>  (31) 
1

>  <reference_id>  (31) 
27

>  <inspiration_ids>  (31) 
[27, 35]

>  <energy_score>  (31) 
640.1608398429712

>  <distance_score>  (31) 
15.240098244102992

>  <path>  (31) 
/opt/xchem-fragalysis-2/maxwin/BulkDock/SCRATCH/511022/C76308-P27/C76308-P27.minimised.mol

>  <scratch_subdir>  (31) 
/opt/xchem-fragalysis-2/maxwin/BulkDock/SCRATCH/511022/C76308-P27

>  <fragmenstein_runtime>  (31) 
32.67405557632446

>  <fragmenstein_outcome>  (31) 
too moved

>  <fragmenstein_mode>  (31) 
expansion

>  <fragmenstein_error>  (31) 


$$$$
C76308-P35
     RDKit          3D

 52 54  0  0  0  0  0  0  0  0999 V2000
    8.8085   -9.6604   20.1450 C   0  0  0  0  0  0  0  0  0  0  0  0
    7.3220   -9.5091   20.4125 C   0  0  0  0  0  0  0  0  0  0  0  0
    6.4290   -9.2496   19.1755 C   0  0  0  0  0  0  0  0  0  0  0  0
    5.8447   -7.8199   19.1120 C   0  0  0  0  0  0  0  0  0  0  0  0
    5.4356   -7.3890   17.7049 C   0  0  0  0  0  0  0  0  0  0  0  0
    5.3125  -10.3235   19.1136 C   0  0  0  0  0  0  0  0  0  0  0  0
    5.1468  -10.8813   18.0668 O   0  0  0  0  0  0  0  0  0  0  0  0
    4.6993  -10.5405   20.4056 N   0  0  0  0  0  0  0  0  0  0  0  0
    3.7705  -11.5554   20.8553 C   0  0  0  0  0  0  0  0  0  0  0  0
    4.2494  -12.9167   20.4641 C   0  0  0  0  0  0  0  0  0  0  0  0
    3.1350  -13.7720   21.0858 C   0  0  0  0  0  0  0  0  0  0  0  0
    2.8249  -14.8640   22.7992 N   0  0  0  0  0  0  0  0  0  0  0  0
    3.6754  -16.6315   23.2727 C   0  0  0  0  0  0  0  0  0  0  0  0
    4.6913  -16.4403   23.8967 O   0  0  0  0  0  0  0  0  0  0  0  0
    3.4549  -18.6779   22.8808 C   0  0  0  0  0  0  0  0  0  0  0  0
    3.7636  -19.3689   21.2469 C   0  0  0  0  0  0  0  0  0  0  0  0
    2.6261  -19.5553   20.3835 N   0  0  0  0  0  0  0  0  0  0  0  0
    1.7709  -19.9645   21.2737 C   0  0  0  0  0  0  0  0  0  0  0  0
    2.6915  -20.1181   22.3287 N   0  0  0  0  0  0  0  0  0  0  0  0
    3.1324  -21.6082   22.0487 C   0  0  0  0  0  0  0  0  0  0  0  0
    1.8563  -22.2686   21.3872 C   0  0  0  0  0  0  0  0  0  0  0  0
    0.8553  -21.1222   21.1378 C   0  0  0  0  0  0  0  0  0  0  0  0
    3.2447  -13.1346   23.2678 C   0  0  0  0  0  0  0  0  0  0  0  0
    3.4437  -11.6155   22.3629 C   0  0  0  0  0  0  0  0  0  0  0  0
    8.9847  -10.3753   19.3361 H   0  0  0  0  0  0  0  0  0  0  0  0
    9.3050  -10.0576   21.0378 H   0  0  0  0  0  0  0  0  0  0  0  0
    9.2868   -8.7201   19.9215 H   0  0  0  0  0  0  0  0  0  0  0  0
    7.1095   -8.7657   21.1823 H   0  0  0  0  0  0  0  0  0  0  0  0
    7.0562  -10.4688   20.8748 H   0  0  0  0  0  0  0  0  0  0  0  0
    7.0469   -9.4121   18.2827 H   0  0  0  0  0  0  0  0  0  0  0  0
    6.5566   -7.0883   19.4838 H   0  0  0  0  0  0  0  0  0  0  0  0
    4.9657   -7.7494   19.7642 H   0  0  0  0  0  0  0  0  0  0  0  0
    4.6497   -8.0428   17.3136 H   0  0  0  0  0  0  0  0  0  0  0  0
    5.0396   -6.3693   17.7258 H   0  0  0  0  0  0  0  0  0  0  0  0
    6.2712   -7.4122   17.0052 H   0  0  0  0  0  0  0  0  0  0  0  0
    5.0196   -9.8263   21.0474 H   0  0  0  0  0  0  0  0  0  0  0  0
    2.8470  -11.3148   20.3111 H   0  0  0  0  0  0  0  0  0  0  0  0
    5.2929  -13.1599   20.6274 H   0  0  0  0  0  0  0  0  0  0  0  0
    4.1662  -13.0092   19.3703 H   0  0  0  0  0  0  0  0  0  0  0  0
    2.9026  -14.5758   20.2916 H   0  0  0  0  0  0  0  0  0  0  0  0
    2.2698  -13.3854   20.4526 H   0  0  0  0  0  0  0  0  0  0  0  0
    4.6152  -18.9889   20.6572 H   0  0  0  0  0  0  0  0  0  0  0  0
    3.5311  -22.1177   22.9265 H   0  0  0  0  0  0  0  0  0  0  0  0
    3.9251  -21.6121   21.2890 H   0  0  0  0  0  0  0  0  0  0  0  0
    1.4223  -23.0829   21.9755 H   0  0  0  0  0  0  0  0  0  0  0  0
    2.1577  -22.7204   20.4329 H   0  0  0  0  0  0  0  0  0  0  0  0
    0.4051  -21.1889   20.1441 H   0  0  0  0  0  0  0  0  0  0  0  0
    0.0644  -21.0972   21.8929 H   0  0  0  0  0  0  0  0  0  0  0  0
    2.4508  -12.7056   23.9189 H   0  0  0  0  0  0  0  0  0  0  0  0
    3.6446  -13.3732   24.2459 H   0  0  0  0  0  0  0  0  0  0  0  0
    2.5303  -11.0268   22.5368 H   0  0  0  0  0  0  0  0  0  0  0  0
    4.2236  -11.0126   22.8066 H   0  0  0  0  0  0  0  0  0  0  0  0
  1  2  1  0
  2  3  1  0
  3  4  1  0
  4  5  1  0
  3  6  1  0
  6  7  2  0
  6  8  1  0
  8  9  1  0
  9 10  1  0
 10 11  1  0
 11 12  1  0
 12 13  1  0
 13 14  2  0
 13 15  1  0
 15 16  2  0
 16 17  1  0
 17 18  2  0
 18 19  1  0
 19 20  1  0
 20 21  1  0
 21 22  1  0
 12 23  1  0
 23 24  1  0
 24  9  1  0
 19 15  1  0
 22 18  1  0
  1 25  1  0
  1 26  1  0
  1 27  1  0
  2 28  1  0
  2 29  1  0
  3 30  1  0
  4 31  1  0
  4 32  1  0
  5 33  1  0
  5 34  1  0
  5 35  1  0
  8 36  1  0
  9 37  1  0
 10 38  1  0
 10 39  1  0
 11 40  1  0
 11 41  1  0
 16 42  1  0
 20 43  1  0
 20 44  1  0
 21 45  1  0
 21 46  1  0
 22 47  1  0
 22 48  1  0
 23 49  1  0
 23 50  1  0
 24 51  1  0
 24 52  1  0
M  END
>  <Energy>  (32) 
847.72062605907263

>  <compound_id>  (32) 
76308

>  <target_id>  (32) 
1

>  <reference_id>  (32) 
35

>  <inspiration_ids>  (32) 
[27, 35]

>  <energy_score>  (32) 
825.5378946572519

>  <distance_score>  (32) 
14.852873217815338

>  <path>  (32) 
/opt/xchem-fragalysis-2/maxwin/BulkDock/SCRATCH/511022/C76308-P35/C76308-P35.minimised.mol

>  <scratch_subdir>  (32) 
/opt/xchem-fragalysis-2/maxwin/BulkDock/SCRATCH/511022/C76308-P35

>  <fragmenstein_runtime>  (32) 
34.765990257263184

>  <fragmenstein_outcome>  (32) 
too moved

>  <fragmenstein_mode>  (32) 
expansion

>  <fragmenstein_error>  (32) 


$$$$
C76300-P27
     RDKit          3D

 52 54  0  0  0  0  0  0  0  0999 V2000
   10.6640   -9.7740   22.0667 C   0  0  0  0  0  0  0  0  0  0  0  0
   10.6230  -11.3088   21.9815 C   0  0  0  0  0  0  0  0  0  0  0  0
    9.2056  -11.9809   21.8767 C   0  0  0  0  0  0  0  0  0  0  0  0
    8.3670  -11.2704   20.7628 C   0  0  0  0  0  0  0  0  0  0  0  0
    9.0115  -11.1091   19.3852 C   0  0  0  0  0  0  0  0  0  0  0  0
    9.3392  -13.5698   21.6727 C   0  0  0  0  0  0  0  0  0  0  0  0
    9.2594  -13.9783   20.5473 O   0  0  0  0  0  0  0  0  0  0  0  0
    9.6430  -14.2735   22.9263 N   0  0  0  0  0  0  0  0  0  0  0  0
   10.0524  -15.7083   23.1852 C   0  0  0  0  0  0  0  0  0  0  0  0
   11.2761  -15.8712   22.2249 C   0  0  0  0  0  0  0  0  0  0  0  0
   10.7088  -16.5520   20.9620 C   0  0  0  0  0  0  0  0  0  0  0  0
    9.3131  -17.1117   21.3389 C   0  0  0  0  0  0  0  0  0  0  0  0
    9.3454  -17.1253   22.8622 C   0  0  0  0  0  0  0  0  0  0  0  0
    8.3822  -17.9665   23.6635 N   0  0  0  0  0  0  0  0  0  0  0  0
    7.8440  -19.3372   23.4145 C   0  0  0  0  0  0  0  0  0  0  0  0
    7.9850  -20.0690   22.4745 O   0  0  0  0  0  0  0  0  0  0  0  0
    7.0709  -19.9912   24.5570 C   0  0  0  0  0  0  0  0  0  0  0  0
    7.2321  -19.9686   25.9492 C   0  0  0  0  0  0  0  0  0  0  0  0
    6.3349  -20.7804   26.6494 N   0  0  0  0  0  0  0  0  0  0  0  0
    5.6918  -21.4074   25.7064 C   0  0  0  0  0  0  0  0  0  0  0  0
    6.0551  -20.9412   24.4696 N   0  0  0  0  0  0  0  0  0  0  0  0
    5.3315  -21.6289   23.4152 C   0  0  0  0  0  0  0  0  0  0  0  0
    4.7578  -22.8778   24.1343 C   0  0  0  0  0  0  0  0  0  0  0  0
    4.7750  -22.5688   25.6458 C   0  0  0  0  0  0  0  0  0  0  0  0
   10.2988   -9.2952   21.1570 H   0  0  0  0  0  0  0  0  0  0  0  0
   10.0637   -9.4289   22.9136 H   0  0  0  0  0  0  0  0  0  0  0  0
   11.6945   -9.4399   22.2249 H   0  0  0  0  0  0  0  0  0  0  0  0
   11.2424  -11.6353   21.1368 H   0  0  0  0  0  0  0  0  0  0  0  0
   11.1179  -11.7112   22.8748 H   0  0  0  0  0  0  0  0  0  0  0  0
    8.6733  -11.8316   22.8253 H   0  0  0  0  0  0  0  0  0  0  0  0
    7.4260  -11.8207   20.6366 H   0  0  0  0  0  0  0  0  0  0  0  0
    8.0862  -10.2741   21.1265 H   0  0  0  0  0  0  0  0  0  0  0  0
   10.0005  -10.6560   19.4387 H   0  0  0  0  0  0  0  0  0  0  0  0
    8.3746  -10.4844   18.7517 H   0  0  0  0  0  0  0  0  0  0  0  0
    9.1182  -12.0765   18.8864 H   0  0  0  0  0  0  0  0  0  0  0  0
    9.7083  -13.5981   23.6785 H   0  0  0  0  0  0  0  0  0  0  0  0
   10.3887  -15.7171   24.2282 H   0  0  0  0  0  0  0  0  0  0  0  0
   11.7982  -14.9382   21.9860 H   0  0  0  0  0  0  0  0  0  0  0  0
   12.0174  -16.5356   22.6882 H   0  0  0  0  0  0  0  0  0  0  0  0
   10.6510  -15.8768   20.1051 H   0  0  0  0  0  0  0  0  0  0  0  0
   11.3741  -17.3716   20.6650 H   0  0  0  0  0  0  0  0  0  0  0  0
    8.5066  -16.4683   20.9743 H   0  0  0  0  0  0  0  0  0  0  0  0
    9.1663  -18.1070   20.9086 H   0  0  0  0  0  0  0  0  0  0  0  0
   10.1879  -17.8122   23.0663 H   0  0  0  0  0  0  0  0  0  0  0  0
    7.9956  -17.6101   24.5264 H   0  0  0  0  0  0  0  0  0  0  0  0
    7.9714  -19.3961   26.4968 H   0  0  0  0  0  0  0  0  0  0  0  0
    4.5503  -20.9620   23.0455 H   0  0  0  0  0  0  0  0  0  0  0  0
    6.0231  -21.8986   22.6139 H   0  0  0  0  0  0  0  0  0  0  0  0
    5.4265  -23.7278   23.9418 H   0  0  0  0  0  0  0  0  0  0  0  0
    3.7733  -23.1715   23.7612 H   0  0  0  0  0  0  0  0  0  0  0  0
    5.1711  -23.4191   26.2096 H   0  0  0  0  0  0  0  0  0  0  0  0
    3.7821  -22.3515   26.0228 H   0  0  0  0  0  0  0  0  0  0  0  0
  1  2  1  0
  2  3  1  0
  3  4  1  0
  4  5  1  0
  3  6  1  0
  6  7  2  0
  6  8  1  0
  8  9  1  0
  9 10  1  0
 10 11  1  0
 11 12  1  0
 12 13  1  0
 13 14  1  0
 14 15  1  0
 15 16  2  0
 15 17  1  0
 17 18  2  0
 18 19  1  0
 19 20  2  0
 20 21  1  0
 21 22  1  0
 22 23  1  0
 23 24  1  0
 13  9  1  0
 21 17  1  0
 24 20  1  0
  1 25  1  0
  1 26  1  0
  1 27  1  0
  2 28  1  0
  2 29  1  0
  3 30  1  0
  4 31  1  0
  4 32  1  0
  5 33  1  0
  5 34  1  0
  5 35  1  0
  8 36  1  0
  9 37  1  0
 10 38  1  0
 10 39  1  0
 11 40  1  0
 11 41  1  0
 12 42  1  0
 12 43  1  0
 13 44  1  0
 14 45  1  0
 18 46  1  0
 22 47  1  0
 22 48  1  0
 23 49  1  0
 23 50  1  0
 24 51  1  0
 24 52  1  0
M  END
>  <Energy>  (33) 
51.473310576157303

>  <compound_id>  (33) 
76300

>  <target_id>  (33) 
1

>  <reference_id>  (33) 
27

>  <inspiration_ids>  (33) 
[27, 35]

>  <energy_score>  (33) 
38.0408069051349

>  <distance_score>  (33) 
15.196039229654376

>  <path>  (33) 
/opt/xchem-fragalysis-2/maxwin/BulkDock/SCRATCH/511022/C76300-P27/C76300-P27.minimised.mol

>  <scratch_subdir>  (33) 
/opt/xchem-fragalysis-2/maxwin/BulkDock/SCRATCH/511022/C76300-P27

>  <fragmenstein_runtime>  (33) 
64.41262650489807

>  <fragmenstein_outcome>  (33) 
too moved

>  <fragmenstein_mode>  (33) 
expansion

>  <fragmenstein_error>  (33) 


$$$$
C76300-P35
     RDKit          3D

 52 54  0  0  0  0  0  0  0  0999 V2000
    5.9298   -7.7714   22.6069 C   0  0  0  0  0  0  0  0  0  0  0  0
    6.3937   -9.1708   23.0362 C   0  0  0  0  0  0  0  0  0  0  0  0
    5.7750  -10.3850   22.2798 C   0  0  0  0  0  0  0  0  0  0  0  0
    5.7355  -10.1253   20.7372 C   0  0  0  0  0  0  0  0  0  0  0  0
    7.0863   -9.8608   20.0697 C   0  0  0  0  0  0  0  0  0  0  0  0
    4.3443  -10.7860   22.8614 C   0  0  0  0  0  0  0  0  0  0  0  0
    3.3930  -10.2674   22.3443 O   0  0  0  0  0  0  0  0  0  0  0  0
    4.4318  -11.6741   24.0247 N   0  0  0  0  0  0  0  0  0  0  0  0
    3.3743  -12.1350   24.9961 C   0  0  0  0  0  0  0  0  0  0  0  0
    3.0898  -10.8991   25.8544 C   0  0  0  0  0  0  0  0  0  0  0  0
    4.2419  -10.8803   26.8466 C   0  0  0  0  0  0  0  0  0  0  0  0
    4.7081  -12.3351   26.9580 C   0  0  0  0  0  0  0  0  0  0  0  0
    3.7485  -13.2351   26.1310 C   0  0  0  0  0  0  0  0  0  0  0  0
    2.4638  -13.8443   26.9175 N   0  0  0  0  0  0  0  0  0  0  0  0
    2.1969  -15.5012   27.7528 C   0  0  0  0  0  0  0  0  0  0  0  0
    3.0913  -16.2916   27.8446 O   0  0  0  0  0  0  0  0  0  0  0  0
    0.6981  -16.1846   28.5402 C   0  0  0  0  0  0  0  0  0  0  0  0
    0.6893  -16.3509   30.0274 C   0  0  0  0  0  0  0  0  0  0  0  0
   -0.4491  -15.5088   30.7349 N   0  0  0  0  0  0  0  0  0  0  0  0
   -1.4350  -15.1413   29.9139 C   0  0  0  0  0  0  0  0  0  0  0  0
   -1.0011  -15.4052   28.4300 N   0  0  0  0  0  0  0  0  0  0  0  0
   -2.3467  -15.3916   27.6117 C   0  0  0  0  0  0  0  0  0  0  0  0
   -3.4674  -14.9888   28.6435 C   0  0  0  0  0  0  0  0  0  0  0  0
   -2.8571  -14.7219   30.0423 C   0  0  0  0  0  0  0  0  0  0  0  0
    4.8475   -7.6757   22.7412 H   0  0  0  0  0  0  0  0  0  0  0  0
    6.4101   -7.0120   23.2322 H   0  0  0  0  0  0  0  0  0  0  0  0
    6.1587   -7.5466   21.5647 H   0  0  0  0  0  0  0  0  0  0  0  0
    7.4813   -9.2374   22.9460 H   0  0  0  0  0  0  0  0  0  0  0  0
    6.1788   -9.2811   24.1066 H   0  0  0  0  0  0  0  0  0  0  0  0
    6.4270  -11.2529   22.4473 H   0  0  0  0  0  0  0  0  0  0  0  0
    5.0462   -9.3059   20.5019 H   0  0  0  0  0  0  0  0  0  0  0  0
    5.2977  -11.0162   20.2673 H   0  0  0  0  0  0  0  0  0  0  0  0
    7.8124  -10.6317   20.3456 H   0  0  0  0  0  0  0  0  0  0  0  0
    6.9690   -9.8827   18.9831 H   0  0  0  0  0  0  0  0  0  0  0  0
    7.4928   -8.8897   20.3416 H   0  0  0  0  0  0  0  0  0  0  0  0
    5.3897  -11.9892   24.1301 H   0  0  0  0  0  0  0  0  0  0  0  0
    2.4921  -12.4147   24.4145 H   0  0  0  0  0  0  0  0  0  0  0  0
    3.0236   -9.9633   25.2902 H   0  0  0  0  0  0  0  0  0  0  0  0
    2.1417  -11.0264   26.3910 H   0  0  0  0  0  0  0  0  0  0  0  0
    3.9119  -10.4899   27.8150 H   0  0  0  0  0  0  0  0  0  0  0  0
    5.0613  -10.2430   26.4956 H   0  0  0  0  0  0  0  0  0  0  0  0
    4.8087  -12.6154   27.9970 H   0  0  0  0  0  0  0  0  0  0  0  0
    5.7135  -12.3916   26.5208 H   0  0  0  0  0  0  0  0  0  0  0  0
    4.2698  -14.0790   25.6786 H   0  0  0  0  0  0  0  0  0  0  0  0
    1.5873  -13.3614   26.8574 H   0  0  0  0  0  0  0  0  0  0  0  0
    1.4663  -16.7883   30.6123 H   0  0  0  0  0  0  0  0  0  0  0  0
   -2.3374  -14.6871   26.7900 H   0  0  0  0  0  0  0  0  0  0  0  0
   -2.5326  -16.3893   27.1900 H   0  0  0  0  0  0  0  0  0  0  0  0
   -4.2321  -15.7689   28.6958 H   0  0  0  0  0  0  0  0  0  0  0  0
   -3.9935  -14.0947   28.2883 H   0  0  0  0  0  0  0  0  0  0  0  0
   -2.9588  -13.6638   30.2974 H   0  0  0  0  0  0  0  0  0  0  0  0
   -3.3716  -15.2445   30.8429 H   0  0  0  0  0  0  0  0  0  0  0  0
  1  2  1  0
  2  3  1  0
  3  4  1  0
  4  5  1  0
  3  6  1  0
  6  7  2  0
  6  8  1  0
  8  9  1  0
  9 10  1  0
 10 11  1  0
 11 12  1  0
 12 13  1  0
 13 14  1  0
 14 15  1  0
 15 16  2  0
 15 17  1  0
 17 18  2  0
 18 19  1  0
 19 20  2  0
 20 21  1  0
 21 22  1  0
 22 23  1  0
 23 24  1  0
 13  9  1  0
 21 17  1  0
 24 20  1  0
  1 25  1  0
  1 26  1  0
  1 27  1  0
  2 28  1  0
  2 29  1  0
  3 30  1  0
  4 31  1  0
  4 32  1  0
  5 33  1  0
  5 34  1  0
  5 35  1  0
  8 36  1  0
  9 37  1  0
 10 38  1  0
 10 39  1  0
 11 40  1  0
 11 41  1  0
 12 42  1  0
 12 43  1  0
 13 44  1  0
 14 45  1  0
 18 46  1  0
 22 47  1  0
 22 48  1  0
 23 49  1  0
 23 50  1  0
 24 51  1  0
 24 52  1  0
M  END
>  <Energy>  (34) 
275.93979366279473

>  <compound_id>  (34) 
76300

>  <target_id>  (34) 
1

>  <reference_id>  (34) 
35

>  <inspiration_ids>  (34) 
[27, 35]

>  <energy_score>  (34) 
262.5072899917782

>  <distance_score>  (34) 
14.110762375946917

>  <path>  (34) 
/opt/xchem-fragalysis-2/maxwin/BulkDock/SCRATCH/511022/C76300-P35/C76300-P35.minimised.mol

>  <scratch_subdir>  (34) 
/opt/xchem-fragalysis-2/maxwin/BulkDock/SCRATCH/511022/C76300-P35

>  <fragmenstein_runtime>  (34) 
44.13863563537598

>  <fragmenstein_outcome>  (34) 
too moved

>  <fragmenstein_mode>  (34) 
expansion

>  <fragmenstein_error>  (34) 


$$$$
C76304-P27
     RDKit          3D

 55 57  0  0  0  0  0  0  0  0999 V2000
   10.5616  -10.8798   20.3190 C   0  0  0  0  0  0  0  0  0  0  0  0
    9.9954   -9.8556   21.2831 C   0  0  0  0  0  0  0  0  0  0  0  0
   10.8239   -9.7212   22.5828 C   0  0  0  0  0  0  0  0  0  0  0  0
   11.9082   -8.6161   22.3806 C   0  0  0  0  0  0  0  0  0  0  0  0
   13.3018   -9.1526   22.0960 C   0  0  0  0  0  0  0  0  0  0  0  0
    9.8785   -9.4379   23.8203 C   0  0  0  0  0  0  0  0  0  0  0  0
    9.8209   -8.3237   24.2494 O   0  0  0  0  0  0  0  0  0  0  0  0
    9.2200  -10.6465   24.2525 N   0  0  0  0  0  0  0  0  0  0  0  0
    8.3541  -10.9090   25.4062 C   0  0  0  0  0  0  0  0  0  0  0  0
    7.9824  -12.3712   25.5242 C   0  0  0  0  0  0  0  0  0  0  0  0
    6.1666  -12.2962   25.6685 C   0  0  0  0  0  0  0  0  0  0  0  0
    5.0810  -13.2883   25.7148 N   0  0  0  0  0  0  0  0  0  0  0  0
    3.5401  -13.6028   24.7774 C   0  0  0  0  0  0  0  0  0  0  0  0
    3.5929  -14.3309   23.7920 O   0  0  0  0  0  0  0  0  0  0  0  0
    1.8287  -12.8812   24.9430 C   0  0  0  0  0  0  0  0  0  0  0  0
    1.2364  -11.8686   24.1609 C   0  0  0  0  0  0  0  0  0  0  0  0
   -0.1213  -11.7419   24.3542 N   0  0  0  0  0  0  0  0  0  0  0  0
   -0.3920  -12.4103   25.4438 C   0  0  0  0  0  0  0  0  0  0  0  0
    0.7903  -12.8899   25.9912 N   0  0  0  0  0  0  0  0  0  0  0  0
    0.8188  -13.1926   27.4262 C   0  0  0  0  0  0  0  0  0  0  0  0
   -0.5379  -13.3677   28.1732 C   0  0  0  0  0  0  0  0  0  0  0  0
   -1.6432  -12.4831   27.6150 C   0  0  0  0  0  0  0  0  0  0  0  0
   -1.7360  -12.5955   26.0965 C   0  0  0  0  0  0  0  0  0  0  0  0
    5.9081  -11.6870   24.9516 C   0  0  0  0  0  0  0  0  0  0  0  0
    6.9641  -10.2887   25.3744 C   0  0  0  0  0  0  0  0  0  0  0  0
    9.9764  -10.9004   19.3952 H   0  0  0  0  0  0  0  0  0  0  0  0
   11.6056  -10.7075   20.0649 H   0  0  0  0  0  0  0  0  0  0  0  0
   10.5005  -11.8811   20.7603 H   0  0  0  0  0  0  0  0  0  0  0  0
    8.9665  -10.1526   21.5198 H   0  0  0  0  0  0  0  0  0  0  0  0
    9.9205   -8.9072   20.7488 H   0  0  0  0  0  0  0  0  0  0  0  0
   11.3332  -10.6683   22.8067 H   0  0  0  0  0  0  0  0  0  0  0  0
   11.9847   -7.9745   23.2647 H   0  0  0  0  0  0  0  0  0  0  0  0
   11.6470   -7.9798   21.5375 H   0  0  0  0  0  0  0  0  0  0  0  0
   13.9841   -8.3321   21.8524 H   0  0  0  0  0  0  0  0  0  0  0  0
   13.3152   -9.8675   21.2712 H   0  0  0  0  0  0  0  0  0  0  0  0
   13.6971   -9.6648   22.9797 H   0  0  0  0  0  0  0  0  0  0  0  0
    9.5686  -11.4258   23.7064 H   0  0  0  0  0  0  0  0  0  0  0  0
    8.8990  -10.5491   26.2852 H   0  0  0  0  0  0  0  0  0  0  0  0
    8.2967  -12.9672   24.6680 H   0  0  0  0  0  0  0  0  0  0  0  0
    8.4100  -12.7858   26.4461 H   0  0  0  0  0  0  0  0  0  0  0  0
    6.5458  -13.0632   26.4142 H   0  0  0  0  0  0  0  0  0  0  0  0
    6.0086  -11.7228   26.7502 H   0  0  0  0  0  0  0  0  0  0  0  0
    1.7256  -11.2966   23.3818 H   0  0  0  0  0  0  0  0  0  0  0  0
    1.3013  -12.3295   27.8938 H   0  0  0  0  0  0  0  0  0  0  0  0
    1.4408  -14.0759   27.5410 H   0  0  0  0  0  0  0  0  0  0  0  0
   -0.8829  -14.4020   28.1559 H   0  0  0  0  0  0  0  0  0  0  0  0
   -0.3839  -13.1415   29.2356 H   0  0  0  0  0  0  0  0  0  0  0  0
   -2.6047  -12.7396   28.0732 H   0  0  0  0  0  0  0  0  0  0  0  0
   -1.4291  -11.4411   27.8858 H   0  0  0  0  0  0  0  0  0  0  0  0
   -2.1486  -13.5691   25.8097 H   0  0  0  0  0  0  0  0  0  0  0  0
   -2.4285  -11.8347   25.7184 H   0  0  0  0  0  0  0  0  0  0  0  0
    5.0007  -11.1228   24.5319 H   0  0  0  0  0  0  0  0  0  0  0  0
    6.3963  -11.8462   23.9053 H   0  0  0  0  0  0  0  0  0  0  0  0
    6.8487   -9.5480   24.5753 H   0  0  0  0  0  0  0  0  0  0  0  0
    6.6429   -9.8526   26.3281 H   0  0  0  0  0  0  0  0  0  0  0  0
  1  2  1  0
  2  3  1  0
  3  4  1  0
  4  5  1  0
  3  6  1  0
  6  7  2  0
  6  8  1  0
  8  9  1  0
  9 10  1  0
 10 11  1  0
 11 12  1  0
 12 13  1  0
 13 14  2  0
 13 15  1  0
 15 16  2  0
 16 17  1  0
 17 18  2  0
 18 19  1  0
 19 20  1  0
 20 21  1  0
 21 22  1  0
 22 23  1  0
 12 24  1  0
 24 25  1  0
 25  9  1  0
 19 15  1  0
 23 18  1  0
  1 26  1  0
  1 27  1  0
  1 28  1  0
  2 29  1  0
  2 30  1  0
  3 31  1  0
  4 32  1  0
  4 33  1  0
  5 34  1  0
  5 35  1  0
  5 36  1  0
  8 37  1  0
  9 38  1  0
 10 39  1  0
 10 40  1  0
 11 41  1  0
 11 42  1  0
 16 43  1  0
 20 44  1  0
 20 45  1  0
 21 46  1  0
 21 47  1  0
 22 48  1  0
 22 49  1  0
 23 50  1  0
 23 51  1  0
 24 52  1  0
 24 53  1  0
 25 54  1  0
 25 55  1  0
M  END
>  <Energy>  (35) 
738.40033587275514

>  <compound_id>  (35) 
76304

>  <target_id>  (35) 
1

>  <reference_id>  (35) 
27

>  <inspiration_ids>  (35) 
[27, 35]

>  <energy_score>  (35) 
722.6045339102559

>  <distance_score>  (35) 
14.373775942619883

>  <path>  (35) 
/opt/xchem-fragalysis-2/maxwin/BulkDock/SCRATCH/511022/C76304-P27/C76304-P27.minimised.mol

>  <scratch_subdir>  (35) 
/opt/xchem-fragalysis-2/maxwin/BulkDock/SCRATCH/511022/C76304-P27

>  <fragmenstein_runtime>  (35) 
37.31456518173218

>  <fragmenstein_outcome>  (35) 
too moved

>  <fragmenstein_mode>  (35) 
expansion

>  <fragmenstein_error>  (35) 


$$$$
C76304-P35
     RDKit          3D

 55 57  0  0  0  0  0  0  0  0999 V2000
   12.4562   -8.1685   22.2175 C   0  0  0  0  0  0  0  0  0  0  0  0
   11.8533   -9.3389   22.9879 C   0  0  0  0  0  0  0  0  0  0  0  0
   10.7602   -9.0311   24.0649 C   0  0  0  0  0  0  0  0  0  0  0  0
   11.2272   -7.9247   25.0275 C   0  0  0  0  0  0  0  0  0  0  0  0
   12.6262   -8.1127   25.5865 C   0  0  0  0  0  0  0  0  0  0  0  0
   10.2626  -10.3704   24.7723 C   0  0  0  0  0  0  0  0  0  0  0  0
   10.8682  -11.3731   24.5160 O   0  0  0  0  0  0  0  0  0  0  0  0
    9.0767  -10.1626   25.5914 N   0  0  0  0  0  0  0  0  0  0  0  0
    8.3159  -11.0922   26.4304 C   0  0  0  0  0  0  0  0  0  0  0  0
    7.1491  -10.5876   27.2574 C   0  0  0  0  0  0  0  0  0  0  0  0
    6.0029  -12.0079   27.1116 C   0  0  0  0  0  0  0  0  0  0  0  0
    5.0227  -12.7661   27.8670 N   0  0  0  0  0  0  0  0  0  0  0  0
    3.6157  -13.8940   27.4598 C   0  0  0  0  0  0  0  0  0  0  0  0
    3.8473  -15.0891   27.3561 O   0  0  0  0  0  0  0  0  0  0  0  0
    1.7751  -13.5852   27.3417 C   0  0  0  0  0  0  0  0  0  0  0  0
    0.8745  -12.7196   26.6390 C   0  0  0  0  0  0  0  0  0  0  0  0
   -0.4282  -12.5940   27.1108 N   0  0  0  0  0  0  0  0  0  0  0  0
   -0.5636  -13.4255   28.0987 C   0  0  0  0  0  0  0  0  0  0  0  0
    0.5833  -14.1857   28.2479 N   0  0  0  0  0  0  0  0  0  0  0  0
    0.4740  -15.3325   29.1928 C   0  0  0  0  0  0  0  0  0  0  0  0
   -0.9312  -15.9503   29.4797 C   0  0  0  0  0  0  0  0  0  0  0  0
   -2.1220  -15.1741   28.9408 C   0  0  0  0  0  0  0  0  0  0  0  0
   -1.8139  -13.6867   28.8905 C   0  0  0  0  0  0  0  0  0  0  0  0
    5.8252  -12.1754   26.1950 C   0  0  0  0  0  0  0  0  0  0  0  0
    7.6004  -12.1904   25.6554 C   0  0  0  0  0  0  0  0  0  0  0  0
   11.7536   -7.8559   21.4518 H   0  0  0  0  0  0  0  0  0  0  0  0
   12.7236   -7.3161   22.8427 H   0  0  0  0  0  0  0  0  0  0  0  0
   13.3714   -8.4974   21.7144 H   0  0  0  0  0  0  0  0  0  0  0  0
   12.6774   -9.8803   23.4711 H   0  0  0  0  0  0  0  0  0  0  0  0
   11.4346  -10.0473   22.2606 H   0  0  0  0  0  0  0  0  0  0  0  0
    9.8746   -8.6643   23.5409 H   0  0  0  0  0  0  0  0  0  0  0  0
   11.2306   -6.9541   24.5346 H   0  0  0  0  0  0  0  0  0  0  0  0
   10.5296   -7.8374   25.8673 H   0  0  0  0  0  0  0  0  0  0  0  0
   12.7182   -9.0835   26.0843 H   0  0  0  0  0  0  0  0  0  0  0  0
   12.8331   -7.3385   26.3334 H   0  0  0  0  0  0  0  0  0  0  0  0
   13.4094   -8.0421   24.8290 H   0  0  0  0  0  0  0  0  0  0  0  0
    8.8877   -9.1692   25.6538 H   0  0  0  0  0  0  0  0  0  0  0  0
    9.0580  -11.5624   27.0871 H   0  0  0  0  0  0  0  0  0  0  0  0
    7.4080  -10.4264   28.3107 H   0  0  0  0  0  0  0  0  0  0  0  0
    6.6679   -9.7016   26.8238 H   0  0  0  0  0  0  0  0  0  0  0  0
    6.8643  -12.4750   27.6991 H   0  0  0  0  0  0  0  0  0  0  0  0
    5.4848  -11.1879   27.7921 H   0  0  0  0  0  0  0  0  0  0  0  0
    1.0706  -12.1183   25.7615 H   0  0  0  0  0  0  0  0  0  0  0  0
    1.0787  -16.1371   28.7819 H   0  0  0  0  0  0  0  0  0  0  0  0
    0.8443  -14.9835   30.1595 H   0  0  0  0  0  0  0  0  0  0  0  0
   -0.9645  -16.9765   29.0919 H   0  0  0  0  0  0  0  0  0  0  0  0
   -1.0331  -16.0552   30.5680 H   0  0  0  0  0  0  0  0  0  0  0  0
   -2.3622  -15.5317   27.9326 H   0  0  0  0  0  0  0  0  0  0  0  0
   -3.0080  -15.3632   29.5571 H   0  0  0  0  0  0  0  0  0  0  0  0
   -2.6545  -13.1510   28.4355 H   0  0  0  0  0  0  0  0  0  0  0  0
   -1.6839  -13.2884   29.9038 H   0  0  0  0  0  0  0  0  0  0  0  0
    5.4179  -11.2630   25.5388 H   0  0  0  0  0  0  0  0  0  0  0  0
    5.4747  -13.0750   25.6148 H   0  0  0  0  0  0  0  0  0  0  0  0
    7.5906  -12.0107   24.5763 H   0  0  0  0  0  0  0  0  0  0  0  0
    8.0292  -13.1668   25.8943 H   0  0  0  0  0  0  0  0  0  0  0  0
  1  2  1  0
  2  3  1  0
  3  4  1  0
  4  5  1  0
  3  6  1  0
  6  7  2  0
  6  8  1  0
  8  9  1  0
  9 10  1  0
 10 11  1  0
 11 12  1  0
 12 13  1  0
 13 14  2  0
 13 15  1  0
 15 16  2  0
 16 17  1  0
 17 18  2  0
 18 19  1  0
 19 20  1  0
 20 21  1  0
 21 22  1  0
 22 23  1  0
 12 24  1  0
 24 25  1  0
 25  9  1  0
 19 15  1  0
 23 18  1  0
  1 26  1  0
  1 27  1  0
  1 28  1  0
  2 29  1  0
  2 30  1  0
  3 31  1  0
  4 32  1  0
  4 33  1  0
  5 34  1  0
  5 35  1  0
  5 36  1  0
  8 37  1  0
  9 38  1  0
 10 39  1  0
 10 40  1  0
 11 41  1  0
 11 42  1  0
 16 43  1  0
 20 44  1  0
 20 45  1  0
 21 46  1  0
 21 47  1  0
 22 48  1  0
 22 49  1  0
 23 50  1  0
 23 51  1  0
 24 52  1  0
 24 53  1  0
 25 54  1  0
 25 55  1  0
M  END
>  <Energy>  (36) 
771.70408858506789

>  <compound_id>  (36) 
76304

>  <target_id>  (36) 
1

>  <reference_id>  (36) 
35

>  <inspiration_ids>  (36) 
[27, 35]

>  <energy_score>  (36) 
755.90828662257

>  <distance_score>  (36) 
13.904392037299965

>  <path>  (36) 
/opt/xchem-fragalysis-2/maxwin/BulkDock/SCRATCH/511022/C76304-P35/C76304-P35.minimised.mol

>  <scratch_subdir>  (36) 
/opt/xchem-fragalysis-2/maxwin/BulkDock/SCRATCH/511022/C76304-P35

>  <fragmenstein_runtime>  (36) 
40.23535680770874

>  <fragmenstein_outcome>  (36) 
too moved

>  <fragmenstein_mode>  (36) 
expansion

>  <fragmenstein_error>  (36) 


$$$$
C76305-P27
     RDKit          3D

 52 54  0  0  0  0  0  0  0  0999 V2000
    9.4900  -17.1304   17.5890 C   0  0  0  0  0  0  0  0  0  0  0  0
    8.1471  -17.6749   18.1450 C   0  0  0  0  0  0  0  0  0  0  0  0
    7.6109  -16.8661   19.3432 C   0  0  0  0  0  0  0  0  0  0  0  0
    7.4905  -15.3351   18.6402 C   0  0  0  0  0  0  0  0  0  0  0  0
    8.5964  -14.2876   18.8463 C   0  0  0  0  0  0  0  0  0  0  0  0
    6.0253  -17.2006   20.0215 C   0  0  0  0  0  0  0  0  0  0  0  0
    5.1853  -16.7114   19.3267 O   0  0  0  0  0  0  0  0  0  0  0  0
    5.8652  -18.2088   21.4132 N   0  0  0  0  0  0  0  0  0  0  0  0
    4.2347  -19.0630   22.3114 C   0  0  0  0  0  0  0  0  0  0  0  0
    2.7820  -19.5540   21.5512 C   0  0  0  0  0  0  0  0  0  0  0  0
    2.7279  -20.7000   22.8262 C   0  0  0  0  0  0  0  0  0  0  0  0
    3.7653  -22.7518   22.9721 N   0  0  0  0  0  0  0  0  0  0  0  0
    3.0942  -24.3674   23.0331 C   0  0  0  0  0  0  0  0  0  0  0  0
    1.9139  -24.6952   22.9211 O   0  0  0  0  0  0  0  0  0  0  0  0
    3.9287  -25.5651   23.3809 C   0  0  0  0  0  0  0  0  0  0  0  0
    4.3008  -25.5071   24.7584 C   0  0  0  0  0  0  0  0  0  0  0  0
    3.3205  -26.2470   25.3766 N   0  0  0  0  0  0  0  0  0  0  0  0
    2.6997  -27.0263   24.4493 C   0  0  0  0  0  0  0  0  0  0  0  0
    3.2501  -26.8420   23.2652 N   0  0  0  0  0  0  0  0  0  0  0  0
    1.4505  -27.6199   24.9943 C   0  0  0  0  0  0  0  0  0  0  0  0
    1.1729  -26.6934   26.2115 C   0  0  0  0  0  0  0  0  0  0  0  0
    2.5526  -26.1269   26.6122 C   0  0  0  0  0  0  0  0  0  0  0  0
    3.8355  -21.8717   24.9602 C   0  0  0  0  0  0  0  0  0  0  0  0
    4.1237  -19.9962   24.2730 C   0  0  0  0  0  0  0  0  0  0  0  0
    9.9159  -17.8753   16.9074 H   0  0  0  0  0  0  0  0  0  0  0  0
   10.2147  -16.9691   18.3926 H   0  0  0  0  0  0  0  0  0  0  0  0
    9.3719  -16.2126   17.0091 H   0  0  0  0  0  0  0  0  0  0  0  0
    8.2902  -18.7140   18.4657 H   0  0  0  0  0  0  0  0  0  0  0  0
    7.4266  -17.7027   17.3252 H   0  0  0  0  0  0  0  0  0  0  0  0
    8.4564  -16.9795   19.9919 H   0  0  0  0  0  0  0  0  0  0  0  0
    7.3786  -15.4763   17.5559 H   0  0  0  0  0  0  0  0  0  0  0  0
    6.5367  -14.8635   18.8886 H   0  0  0  0  0  0  0  0  0  0  0  0
    9.5862  -14.7407   18.9269 H   0  0  0  0  0  0  0  0  0  0  0  0
    8.4084  -13.6912   19.7418 H   0  0  0  0  0  0  0  0  0  0  0  0
    8.6075  -13.5905   18.0017 H   0  0  0  0  0  0  0  0  0  0  0  0
    6.7841  -18.3863   21.8231 H   0  0  0  0  0  0  0  0  0  0  0  0
    4.4662  -19.3802   21.3300 H   0  0  0  0  0  0  0  0  0  0  0  0
    2.6652  -19.9991   20.5285 H   0  0  0  0  0  0  0  0  0  0  0  0
    1.8384  -19.1090   21.4395 H   0  0  0  0  0  0  0  0  0  0  0  0
    1.5591  -20.6825   22.5609 H   0  0  0  0  0  0  0  0  0  0  0  0
    2.7272  -19.7522   23.3594 H   0  0  0  0  0  0  0  0  0  0  0  0
    4.7845  -24.7051   25.2971 H   0  0  0  0  0  0  0  0  0  0  0  0
    1.6293  -28.6490   25.3210 H   0  0  0  0  0  0  0  0  0  0  0  0
    0.6255  -27.5987   24.2781 H   0  0  0  0  0  0  0  0  0  0  0  0
    0.5229  -25.8675   25.8945 H   0  0  0  0  0  0  0  0  0  0  0  0
    0.6741  -27.2146   27.0336 H   0  0  0  0  0  0  0  0  0  0  0  0
    2.5135  -25.0782   26.9161 H   0  0  0  0  0  0  0  0  0  0  0  0
    3.0536  -26.7442   27.3631 H   0  0  0  0  0  0  0  0  0  0  0  0
    3.1170  -22.3044   25.6626 H   0  0  0  0  0  0  0  0  0  0  0  0
    4.7936  -22.2094   25.4775 H   0  0  0  0  0  0  0  0  0  0  0  0
    3.4265  -19.2915   24.8232 H   0  0  0  0  0  0  0  0  0  0  0  0
    4.7737  -19.9623   25.1722 H   0  0  0  0  0  0  0  0  0  0  0  0
  1  2  1  0
  2  3  1  0
  3  4  1  0
  4  5  1  0
  3  6  1  0
  6  7  2  0
  6  8  1  0
  8  9  1  0
  9 10  1  0
 10 11  1  0
 11 12  1  0
 12 13  1  0
 13 14  2  0
 13 15  1  0
 15 16  2  0
 16 17  1  0
 17 18  1  0
 18 19  2  0
 18 20  1  0
 20 21  1  0
 21 22  1  0
 12 23  1  0
 23 24  1  0
 24  9  1  0
 19 15  1  0
 22 17  1  0
  1 25  1  0
  1 26  1  0
  1 27  1  0
  2 28  1  0
  2 29  1  0
  3 30  1  0
  4 31  1  0
  4 32  1  0
  5 33  1  0
  5 34  1  0
  5 35  1  0
  8 36  1  0
  9 37  1  0
 10 38  1  0
 10 39  1  0
 11 40  1  0
 11 41  1  0
 16 42  1  0
 20 43  1  0
 20 44  1  0
 21 45  1  0
 21 46  1  0
 22 47  1  0
 22 48  1  0
 23 49  1  0
 23 50  1  0
 24 51  1  0
 24 52  1  0
M  END
>  <Energy>  (37) 
1262.2044303809969

>  <compound_id>  (37) 
76305

>  <target_id>  (37) 
1

>  <reference_id>  (37) 
27

>  <inspiration_ids>  (37) 
[27, 35]

>  <energy_score>  (37) 
1194.2978695296763

>  <distance_score>  (37) 
17.07422389763018

>  <path>  (37) 
/opt/xchem-fragalysis-2/maxwin/BulkDock/SCRATCH/511022/C76305-P27/C76305-P27.minimised.mol

>  <scratch_subdir>  (37) 
/opt/xchem-fragalysis-2/maxwin/BulkDock/SCRATCH/511022/C76305-P27

>  <fragmenstein_runtime>  (37) 
35.68644428253174

>  <fragmenstein_outcome>  (37) 
too moved

>  <fragmenstein_mode>  (37) 
expansion

>  <fragmenstein_error>  (37) 


$$$$
C76305-P35
     RDKit          3D

 52 54  0  0  0  0  0  0  0  0999 V2000
   10.6003  -11.6606   18.9905 C   0  0  0  0  0  0  0  0  0  0  0  0
   11.3829  -12.6854   18.1691 C   0  0  0  0  0  0  0  0  0  0  0  0
   10.5647  -13.6208   17.2118 C   0  0  0  0  0  0  0  0  0  0  0  0
    9.6264  -12.7787   16.2962 C   0  0  0  0  0  0  0  0  0  0  0  0
   10.2856  -11.6053   15.5559 C   0  0  0  0  0  0  0  0  0  0  0  0
    9.7845  -14.8161   17.9691 C   0  0  0  0  0  0  0  0  0  0  0  0
    9.2168  -14.5435   18.9933 O   0  0  0  0  0  0  0  0  0  0  0  0
    9.8767  -16.0886   17.2340 N   0  0  0  0  0  0  0  0  0  0  0  0
    9.2110  -17.4206   17.4761 C   0  0  0  0  0  0  0  0  0  0  0  0
    9.7772  -18.5627   16.6305 C   0  0  0  0  0  0  0  0  0  0  0  0
   10.0880  -19.8614   17.4726 C   0  0  0  0  0  0  0  0  0  0  0  0
    9.0117  -20.7589   18.0261 N   0  0  0  0  0  0  0  0  0  0  0  0
    7.7421  -21.2020   17.4411 C   0  0  0  0  0  0  0  0  0  0  0  0
    7.2062  -20.8824   16.4073 O   0  0  0  0  0  0  0  0  0  0  0  0
    6.9176  -22.3657   18.2179 C   0  0  0  0  0  0  0  0  0  0  0  0
    5.6211  -22.7870   17.8065 C   0  0  0  0  0  0  0  0  0  0  0  0
    5.0959  -23.4978   18.8292 N   0  0  0  0  0  0  0  0  0  0  0  0
    6.0404  -23.6376   19.7902 C   0  0  0  0  0  0  0  0  0  0  0  0
    7.1508  -22.9795   19.4736 N   0  0  0  0  0  0  0  0  0  0  0  0
    5.5062  -24.4328   20.9376 C   0  0  0  0  0  0  0  0  0  0  0  0
    4.1911  -25.0212   20.3533 C   0  0  0  0  0  0  0  0  0  0  0  0
    3.8201  -24.1178   19.1578 C   0  0  0  0  0  0  0  0  0  0  0  0
    8.7802  -19.5098   18.9679 C   0  0  0  0  0  0  0  0  0  0  0  0
    9.2731  -17.9767   18.8809 C   0  0  0  0  0  0  0  0  0  0  0  0
    9.8786  -11.1068   18.3933 H   0  0  0  0  0  0  0  0  0  0  0  0
   11.2866  -10.9552   19.4661 H   0  0  0  0  0  0  0  0  0  0  0  0
   10.0427  -12.1613   19.7884 H   0  0  0  0  0  0  0  0  0  0  0  0
   12.1265  -12.1469   17.5687 H   0  0  0  0  0  0  0  0  0  0  0  0
   11.9538  -13.3159   18.8622 H   0  0  0  0  0  0  0  0  0  0  0  0
   11.3111  -14.1048   16.5671 H   0  0  0  0  0  0  0  0  0  0  0  0
    9.1915  -13.4551   15.5492 H   0  0  0  0  0  0  0  0  0  0  0  0
    8.7761  -12.4067   16.8800 H   0  0  0  0  0  0  0  0  0  0  0  0
   11.1317  -11.9577   14.9577 H   0  0  0  0  0  0  0  0  0  0  0  0
    9.5617  -11.1408   14.8786 H   0  0  0  0  0  0  0  0  0  0  0  0
   10.6448  -10.8310   16.2360 H   0  0  0  0  0  0  0  0  0  0  0  0
   10.3703  -15.9332   16.3620 H   0  0  0  0  0  0  0  0  0  0  0  0
    8.1605  -17.2597   17.2063 H   0  0  0  0  0  0  0  0  0  0  0  0
   10.7085  -18.2502   16.1420 H   0  0  0  0  0  0  0  0  0  0  0  0
    9.0712  -18.8117   15.8292 H   0  0  0  0  0  0  0  0  0  0  0  0
   10.9198  -19.7392   18.1871 H   0  0  0  0  0  0  0  0  0  0  0  0
   10.5361  -20.5287   16.7194 H   0  0  0  0  0  0  0  0  0  0  0  0
    5.0517  -22.5236   16.9257 H   0  0  0  0  0  0  0  0  0  0  0  0
    5.3033  -23.7946   21.7979 H   0  0  0  0  0  0  0  0  0  0  0  0
    6.1953  -25.2268   21.2381 H   0  0  0  0  0  0  0  0  0  0  0  0
    3.3924  -25.1267   21.0919 H   0  0  0  0  0  0  0  0  0  0  0  0
    4.4014  -26.0309   19.9751 H   0  0  0  0  0  0  0  0  0  0  0  0
    3.4705  -24.6878   18.2935 H   0  0  0  0  0  0  0  0  0  0  0  0
    3.1196  -23.3184   19.4049 H   0  0  0  0  0  0  0  0  0  0  0  0
    7.7121  -19.4650   19.1686 H   0  0  0  0  0  0  0  0  0  0  0  0
    9.2234  -19.8646   19.9097 H   0  0  0  0  0  0  0  0  0  0  0  0
    8.6477  -17.3772   19.5465 H   0  0  0  0  0  0  0  0  0  0  0  0
   10.2938  -17.9003   19.2798 H   0  0  0  0  0  0  0  0  0  0  0  0
  1  2  1  0
  2  3  1  0
  3  4  1  0
  4  5  1  0
  3  6  1  0
  6  7  2  0
  6  8  1  0
  8  9  1  0
  9 10  1  0
 10 11  1  0
 11 12  1  0
 12 13  1  0
 13 14  2  0
 13 15  1  0
 15 16  2  0
 16 17  1  0
 17 18  1  0
 18 19  2  0
 18 20  1  0
 20 21  1  0
 21 22  1  0
 12 23  1  0
 23 24  1  0
 24  9  1  0
 19 15  1  0
 22 17  1  0
  1 25  1  0
  1 26  1  0
  1 27  1  0
  2 28  1  0
  2 29  1  0
  3 30  1  0
  4 31  1  0
  4 32  1  0
  5 33  1  0
  5 34  1  0
  5 35  1  0
  8 36  1  0
  9 37  1  0
 10 38  1  0
 10 39  1  0
 11 40  1  0
 11 41  1  0
 16 42  1  0
 20 43  1  0
 20 44  1  0
 21 45  1  0
 21 46  1  0
 22 47  1  0
 22 48  1  0
 23 49  1  0
 23 50  1  0
 24 51  1  0
 24 52  1  0
M  END
>  <Energy>  (38) 
143.67719304788184

>  <compound_id>  (38) 
76305

>  <target_id>  (38) 
1

>  <reference_id>  (38) 
35

>  <inspiration_ids>  (38) 
[27, 35]

>  <energy_score>  (38) 
75.77063219656725

>  <distance_score>  (38) 
16.62582788724054

>  <path>  (38) 
/opt/xchem-fragalysis-2/maxwin/BulkDock/SCRATCH/511022/C76305-P35/C76305-P35.minimised.mol

>  <scratch_subdir>  (38) 
/opt/xchem-fragalysis-2/maxwin/BulkDock/SCRATCH/511022/C76305-P35

>  <fragmenstein_runtime>  (38) 
33.60557985305786

>  <fragmenstein_outcome>  (38) 
too moved

>  <fragmenstein_mode>  (38) 
expansion

>  <fragmenstein_error>  (38) 


$$$$
C76307-P27
     RDKit          3D

 55 57  0  0  0  0  0  0  0  0999 V2000
   12.7884   -7.7024   22.9087 C   0  0  0  0  0  0  0  0  0  0  0  0
   12.3255   -8.9031   23.7388 C   0  0  0  0  0  0  0  0  0  0  0  0
   10.8106   -9.2809   23.6705 C   0  0  0  0  0  0  0  0  0  0  0  0
   10.3614   -9.6385   22.2365 C   0  0  0  0  0  0  0  0  0  0  0  0
   11.1993  -10.6700   21.5023 C   0  0  0  0  0  0  0  0  0  0  0  0
   10.4116  -10.3336   24.8172 C   0  0  0  0  0  0  0  0  0  0  0  0
   11.2472  -11.1012   25.2025 O   0  0  0  0  0  0  0  0  0  0  0  0
    9.0495  -10.0996   25.2831 N   0  0  0  0  0  0  0  0  0  0  0  0
    8.3102  -10.6594   26.4313 C   0  0  0  0  0  0  0  0  0  0  0  0
    7.7755  -12.0678   26.5337 C   0  0  0  0  0  0  0  0  0  0  0  0
    6.1590  -11.7975   27.4683 C   0  0  0  0  0  0  0  0  0  0  0  0
    5.4777  -12.9965   27.7153 N   0  0  0  0  0  0  0  0  0  0  0  0
    4.0746  -13.8465   27.0171 C   0  0  0  0  0  0  0  0  0  0  0  0
    4.3082  -14.6319   26.0882 O   0  0  0  0  0  0  0  0  0  0  0  0
    2.3158  -13.9279   27.4874 C   0  0  0  0  0  0  0  0  0  0  0  0
    1.6482  -15.0971   28.0130 C   0  0  0  0  0  0  0  0  0  0  0  0
    0.4945  -14.7151   28.7099 N   0  0  0  0  0  0  0  0  0  0  0  0
    0.1962  -13.4494   28.2817 C   0  0  0  0  0  0  0  0  0  0  0  0
    1.2653  -12.9072   27.6647 N   0  0  0  0  0  0  0  0  0  0  0  0
   -1.1927  -12.9183   28.4961 C   0  0  0  0  0  0  0  0  0  0  0  0
   -2.0021  -13.6955   29.5597 C   0  0  0  0  0  0  0  0  0  0  0  0
   -1.8175  -15.2090   29.4506 C   0  0  0  0  0  0  0  0  0  0  0  0
   -0.3345  -15.5469   29.5828 C   0  0  0  0  0  0  0  0  0  0  0  0
    5.7141  -11.3218   26.7483 C   0  0  0  0  0  0  0  0  0  0  0  0
    6.9799   -9.9881   26.6075 C   0  0  0  0  0  0  0  0  0  0  0  0
   13.8807   -7.6313   22.9480 H   0  0  0  0  0  0  0  0  0  0  0  0
   12.5029   -7.7934   21.8595 H   0  0  0  0  0  0  0  0  0  0  0  0
   12.3949   -6.7763   23.3324 H   0  0  0  0  0  0  0  0  0  0  0  0
   12.9288   -9.7768   23.4640 H   0  0  0  0  0  0  0  0  0  0  0  0
   12.5806   -8.6990   24.7873 H   0  0  0  0  0  0  0  0  0  0  0  0
   10.2729   -8.3658   23.9505 H   0  0  0  0  0  0  0  0  0  0  0  0
   10.3930   -8.7437   21.6139 H   0  0  0  0  0  0  0  0  0  0  0  0
    9.3228   -9.9878   22.2625 H   0  0  0  0  0  0  0  0  0  0  0  0
   11.2222  -11.6139   22.0561 H   0  0  0  0  0  0  0  0  0  0  0  0
   10.7706  -10.8697   20.5147 H   0  0  0  0  0  0  0  0  0  0  0  0
   12.2297  -10.3369   21.3552 H   0  0  0  0  0  0  0  0  0  0  0  0
    8.6007   -9.4318   24.6703 H   0  0  0  0  0  0  0  0  0  0  0  0
    8.9447  -10.4641   27.3037 H   0  0  0  0  0  0  0  0  0  0  0  0
    7.5519  -12.5128   25.5593 H   0  0  0  0  0  0  0  0  0  0  0  0
    8.4151  -12.7502   27.1041 H   0  0  0  0  0  0  0  0  0  0  0  0
    6.0207  -11.0752   28.4805 H   0  0  0  0  0  0  0  0  0  0  0  0
    6.9281  -12.0390   28.2900 H   0  0  0  0  0  0  0  0  0  0  0  0
    1.9604  -16.1375   28.0182 H   0  0  0  0  0  0  0  0  0  0  0  0
   -1.1412  -11.8606   28.7769 H   0  0  0  0  0  0  0  0  0  0  0  0
   -1.7229  -12.9727   27.5374 H   0  0  0  0  0  0  0  0  0  0  0  0
   -1.6795  -13.3698   30.5572 H   0  0  0  0  0  0  0  0  0  0  0  0
   -3.0631  -13.4365   29.4703 H   0  0  0  0  0  0  0  0  0  0  0  0
   -2.1988  -15.5542   28.4824 H   0  0  0  0  0  0  0  0  0  0  0  0
   -2.3898  -15.7212   30.2313 H   0  0  0  0  0  0  0  0  0  0  0  0
    0.0215  -15.3546   30.6013 H   0  0  0  0  0  0  0  0  0  0  0  0
   -0.1481  -16.5987   29.3450 H   0  0  0  0  0  0  0  0  0  0  0  0
    5.6025  -11.5761   25.6184 H   0  0  0  0  0  0  0  0  0  0  0  0
    4.8783  -10.5305   27.0485 H   0  0  0  0  0  0  0  0  0  0  0  0
    6.9390   -9.3726   27.5165 H   0  0  0  0  0  0  0  0  0  0  0  0
    6.6561   -9.3772   25.7561 H   0  0  0  0  0  0  0  0  0  0  0  0
  1  2  1  0
  2  3  1  0
  3  4  1  0
  4  5  1  0
  3  6  1  0
  6  7  2  0
  6  8  1  0
  8  9  1  0
  9 10  1  0
 10 11  1  0
 11 12  1  0
 12 13  1  0
 13 14  2  0
 13 15  1  0
 15 16  2  0
 16 17  1  0
 17 18  1  0
 18 19  2  0
 18 20  1  0
 20 21  1  0
 21 22  1  0
 22 23  1  0
 12 24  1  0
 24 25  1  0
 25  9  1  0
 19 15  1  0
 23 17  1  0
  1 26  1  0
  1 27  1  0
  1 28  1  0
  2 29  1  0
  2 30  1  0
  3 31  1  0
  4 32  1  0
  4 33  1  0
  5 34  1  0
  5 35  1  0
  5 36  1  0
  8 37  1  0
  9 38  1  0
 10 39  1  0
 10 40  1  0
 11 41  1  0
 11 42  1  0
 16 43  1  0
 20 44  1  0
 20 45  1  0
 21 46  1  0
 21 47  1  0
 22 48  1  0
 22 49  1  0
 23 50  1  0
 23 51  1  0
 24 52  1  0
 24 53  1  0
 25 54  1  0
 25 55  1  0
M  END
>  <Energy>  (39) 
767.80060071707396

>  <compound_id>  (39) 
76307

>  <target_id>  (39) 
1

>  <reference_id>  (39) 
27

>  <inspiration_ids>  (39) 
[27, 35]

>  <energy_score>  (39) 
709.5293840880529

>  <distance_score>  (39) 
13.77760066008096

>  <path>  (39) 
/opt/xchem-fragalysis-2/maxwin/BulkDock/SCRATCH/511022/C76307-P27/C76307-P27.minimised.mol

>  <scratch_subdir>  (39) 
/opt/xchem-fragalysis-2/maxwin/BulkDock/SCRATCH/511022/C76307-P27

>  <fragmenstein_runtime>  (39) 
37.82090878486633

>  <fragmenstein_outcome>  (39) 
too moved

>  <fragmenstein_mode>  (39) 
expansion

>  <fragmenstein_error>  (39) 


$$$$
C76307-P35
     RDKit          3D

 55 57  0  0  0  0  0  0  0  0999 V2000
   12.2436   -7.4989   24.2408 C   0  0  0  0  0  0  0  0  0  0  0  0
   11.0496   -8.4305   24.4870 C   0  0  0  0  0  0  0  0  0  0  0  0
   11.0446   -9.7452   23.6834 C   0  0  0  0  0  0  0  0  0  0  0  0
   11.1083   -9.4679   22.1443 C   0  0  0  0  0  0  0  0  0  0  0  0
   11.4099  -10.7077   21.3139 C   0  0  0  0  0  0  0  0  0  0  0  0
    9.7934  -10.6598   24.0405 C   0  0  0  0  0  0  0  0  0  0  0  0
    8.8484  -10.6430   23.3013 O   0  0  0  0  0  0  0  0  0  0  0  0
   10.0623  -11.4714   25.2143 N   0  0  0  0  0  0  0  0  0  0  0  0
    9.3006  -12.6097   25.8157 C   0  0  0  0  0  0  0  0  0  0  0  0
    9.4117  -13.6893   24.7894 C   0  0  0  0  0  0  0  0  0  0  0  0
    8.4981  -15.3348   24.8844 C   0  0  0  0  0  0  0  0  0  0  0  0
    7.7583  -15.7180   26.5650 N   0  0  0  0  0  0  0  0  0  0  0  0
    7.6738  -17.4148   27.6598 C   0  0  0  0  0  0  0  0  0  0  0  0
    8.7234  -17.4660   28.4066 O   0  0  0  0  0  0  0  0  0  0  0  0
    6.6426  -19.2290   27.8678 C   0  0  0  0  0  0  0  0  0  0  0  0
    6.2017  -20.0337   29.4103 C   0  0  0  0  0  0  0  0  0  0  0  0
    5.3564  -21.4880   29.0860 N   0  0  0  0  0  0  0  0  0  0  0  0
    4.8385  -21.3572   27.5716 C   0  0  0  0  0  0  0  0  0  0  0  0
    5.3002  -20.0835   27.0336 N   0  0  0  0  0  0  0  0  0  0  0  0
    4.2920  -22.6580   27.0202 C   0  0  0  0  0  0  0  0  0  0  0  0
    3.3535  -23.4048   28.0053 C   0  0  0  0  0  0  0  0  0  0  0  0
    3.6894  -23.3608   29.5188 C   0  0  0  0  0  0  0  0  0  0  0  0
    4.9711  -22.6089   29.9508 C   0  0  0  0  0  0  0  0  0  0  0  0
    7.1710  -13.8697   26.8533 C   0  0  0  0  0  0  0  0  0  0  0  0
    7.8235  -12.5401   26.0309 C   0  0  0  0  0  0  0  0  0  0  0  0
   13.1739   -8.0032   24.5226 H   0  0  0  0  0  0  0  0  0  0  0  0
   12.3450   -7.1757   23.2069 H   0  0  0  0  0  0  0  0  0  0  0  0
   12.1480   -6.6038   24.8640 H   0  0  0  0  0  0  0  0  0  0  0  0
   10.1034   -7.9122   24.3242 H   0  0  0  0  0  0  0  0  0  0  0  0
   11.0453   -8.6840   25.5554 H   0  0  0  0  0  0  0  0  0  0  0  0
   11.9490  -10.3113   23.9452 H   0  0  0  0  0  0  0  0  0  0  0  0
   11.8700   -8.7225   21.9094 H   0  0  0  0  0  0  0  0  0  0  0  0
   10.1538   -9.0885   21.7942 H   0  0  0  0  0  0  0  0  0  0  0  0
   12.4450  -11.0307   21.4662 H   0  0  0  0  0  0  0  0  0  0  0  0
   10.7547  -11.5425   21.5835 H   0  0  0  0  0  0  0  0  0  0  0  0
   11.2592  -10.5181   20.2481 H   0  0  0  0  0  0  0  0  0  0  0  0
   10.9269  -11.1575   25.6433 H   0  0  0  0  0  0  0  0  0  0  0  0
    9.8236  -12.8294   26.7496 H   0  0  0  0  0  0  0  0  0  0  0  0
    9.0763  -13.1734   23.8599 H   0  0  0  0  0  0  0  0  0  0  0  0
   10.4751  -13.8077   24.5270 H   0  0  0  0  0  0  0  0  0  0  0  0
    8.5810  -14.7248   23.9560 H   0  0  0  0  0  0  0  0  0  0  0  0
    8.2455  -15.8715   23.9624 H   0  0  0  0  0  0  0  0  0  0  0  0
    6.4860  -19.8753   30.4474 H   0  0  0  0  0  0  0  0  0  0  0  0
    3.8092  -22.5299   26.0529 H   0  0  0  0  0  0  0  0  0  0  0  0
    5.1537  -23.3111   26.8276 H   0  0  0  0  0  0  0  0  0  0  0  0
    3.2935  -24.4537   27.6876 H   0  0  0  0  0  0  0  0  0  0  0  0
    2.3352  -23.0178   27.8839 H   0  0  0  0  0  0  0  0  0  0  0  0
    3.7444  -24.3876   29.9029 H   0  0  0  0  0  0  0  0  0  0  0  0
    2.8325  -22.9195   30.0463 H   0  0  0  0  0  0  0  0  0  0  0  0
    5.7996  -23.3211   29.9326 H   0  0  0  0  0  0  0  0  0  0  0  0
    4.8829  -22.2227   30.9707 H   0  0  0  0  0  0  0  0  0  0  0  0
    6.2231  -13.2468   27.0423 H   0  0  0  0  0  0  0  0  0  0  0  0
    7.9543  -13.6933   27.6235 H   0  0  0  0  0  0  0  0  0  0  0  0
    7.2662  -12.3157   25.1162 H   0  0  0  0  0  0  0  0  0  0  0  0
    7.6283  -11.6701   26.6770 H   0  0  0  0  0  0  0  0  0  0  0  0
  1  2  1  0
  2  3  1  0
  3  4  1  0
  4  5  1  0
  3  6  1  0
  6  7  2  0
  6  8  1  0
  8  9  1  0
  9 10  1  0
 10 11  1  0
 11 12  1  0
 12 13  1  0
 13 14  2  0
 13 15  1  0
 15 16  2  0
 16 17  1  0
 17 18  1  0
 18 19  2  0
 18 20  1  0
 20 21  1  0
 21 22  1  0
 22 23  1  0
 12 24  1  0
 24 25  1  0
 25  9  1  0
 19 15  1  0
 23 17  1  0
  1 26  1  0
  1 27  1  0
  1 28  1  0
  2 29  1  0
  2 30  1  0
  3 31  1  0
  4 32  1  0
  4 33  1  0
  5 34  1  0
  5 35  1  0
  5 36  1  0
  8 37  1  0
  9 38  1  0
 10 39  1  0
 10 40  1  0
 11 41  1  0
 11 42  1  0
 16 43  1  0
 20 44  1  0
 20 45  1  0
 21 46  1  0
 21 47  1  0
 22 48  1  0
 22 49  1  0
 23 50  1  0
 23 51  1  0
 24 52  1  0
 24 53  1  0
 25 54  1  0
 25 55  1  0
M  END
>  <Energy>  (40) 
861.46754854197991

>  <compound_id>  (40) 
76307

>  <target_id>  (40) 
1

>  <reference_id>  (40) 
35

>  <inspiration_ids>  (40) 
[27, 35]

>  <energy_score>  (40) 
803.196331912956

>  <distance_score>  (40) 
14.036625289811871

>  <path>  (40) 
/opt/xchem-fragalysis-2/maxwin/BulkDock/SCRATCH/511022/C76307-P35/C76307-P35.minimised.mol

>  <scratch_subdir>  (40) 
/opt/xchem-fragalysis-2/maxwin/BulkDock/SCRATCH/511022/C76307-P35

>  <fragmenstein_runtime>  (40) 
31.878456115722656

>  <fragmenstein_outcome>  (40) 
too moved

>  <fragmenstein_mode>  (40) 
expansion

>  <fragmenstein_error>  (40) 


$$$$
C76308-P27
     RDKit          3D

 52 54  0  0  0  0  0  0  0  0999 V2000
   11.5316   -8.8699   23.8742 C   0  0  0  0  0  0  0  0  0  0  0  0
   10.2158   -9.5425   24.2913 C   0  0  0  0  0  0  0  0  0  0  0  0
   10.0683  -11.0754   23.9741 C   0  0  0  0  0  0  0  0  0  0  0  0
   10.3516  -11.3244   22.4483 C   0  0  0  0  0  0  0  0  0  0  0  0
    9.7106  -10.3880   21.4104 C   0  0  0  0  0  0  0  0  0  0  0  0
    8.6181  -11.6034   24.3818 C   0  0  0  0  0  0  0  0  0  0  0  0
    7.7291  -11.0069   23.8243 O   0  0  0  0  0  0  0  0  0  0  0  0
    8.5649  -12.7494   25.3440 N   0  0  0  0  0  0  0  0  0  0  0  0
    7.3549  -13.4613   26.0038 C   0  0  0  0  0  0  0  0  0  0  0  0
    6.5100  -15.3097   25.6970 C   0  0  0  0  0  0  0  0  0  0  0  0
    4.4721  -15.1078   25.8481 C   0  0  0  0  0  0  0  0  0  0  0  0
    3.6420  -13.9173   25.8494 N   0  0  0  0  0  0  0  0  0  0  0  0
    2.1496  -13.4817   26.8992 C   0  0  0  0  0  0  0  0  0  0  0  0
    2.5098  -12.9287   27.8612 O   0  0  0  0  0  0  0  0  0  0  0  0
    0.2970  -13.4330   26.8568 C   0  0  0  0  0  0  0  0  0  0  0  0
   -1.0696  -14.0856   27.4972 C   0  0  0  0  0  0  0  0  0  0  0  0
   -2.2636  -13.5366   27.1876 N   0  0  0  0  0  0  0  0  0  0  0  0
   -1.8792  -12.3165   27.1006 C   0  0  0  0  0  0  0  0  0  0  0  0
   -0.5076  -12.1680   27.1623 N   0  0  0  0  0  0  0  0  0  0  0  0
   -0.1603  -10.7962   27.4909 C   0  0  0  0  0  0  0  0  0  0  0  0
   -1.4995  -10.2551   28.0460 C   0  0  0  0  0  0  0  0  0  0  0  0
   -2.5993  -11.0564   27.3291 C   0  0  0  0  0  0  0  0  0  0  0  0
    5.0778  -13.5845   25.9943 C   0  0  0  0  0  0  0  0  0  0  0  0
    6.2843  -12.6117   26.6504 C   0  0  0  0  0  0  0  0  0  0  0  0
   11.5618   -7.8443   24.2547 H   0  0  0  0  0  0  0  0  0  0  0  0
   11.6674   -8.8290   22.7928 H   0  0  0  0  0  0  0  0  0  0  0  0
   12.3819   -9.4101   24.3026 H   0  0  0  0  0  0  0  0  0  0  0  0
   10.1014   -9.4229   25.3767 H   0  0  0  0  0  0  0  0  0  0  0  0
    9.3802   -8.9886   23.8512 H   0  0  0  0  0  0  0  0  0  0  0  0
   10.8067  -11.6359   24.5593 H   0  0  0  0  0  0  0  0  0  0  0  0
   10.0364  -12.3494   22.2134 H   0  0  0  0  0  0  0  0  0  0  0  0
   11.4378  -11.2989   22.2945 H   0  0  0  0  0  0  0  0  0  0  0  0
    8.6251  -10.3448   21.5290 H   0  0  0  0  0  0  0  0  0  0  0  0
   10.1091   -9.3753   21.4593 H   0  0  0  0  0  0  0  0  0  0  0  0
    9.9189  -10.7652   20.4033 H   0  0  0  0  0  0  0  0  0  0  0  0
    9.5016  -12.9466   25.6787 H   0  0  0  0  0  0  0  0  0  0  0  0
    6.9602  -12.8907   25.1288 H   0  0  0  0  0  0  0  0  0  0  0  0
    6.3527  -16.0400   24.8721 H   0  0  0  0  0  0  0  0  0  0  0  0
    7.2943  -15.8218   26.2552 H   0  0  0  0  0  0  0  0  0  0  0  0
    4.0859  -15.6961   26.6981 H   0  0  0  0  0  0  0  0  0  0  0  0
    4.3484  -15.3831   24.7819 H   0  0  0  0  0  0  0  0  0  0  0  0
   -1.1221  -14.9861   28.1124 H   0  0  0  0  0  0  0  0  0  0  0  0
    0.6395  -10.7536   28.2309 H   0  0  0  0  0  0  0  0  0  0  0  0
    0.1328  -10.2970   26.5629 H   0  0  0  0  0  0  0  0  0  0  0  0
   -1.6033   -9.1756   27.9017 H   0  0  0  0  0  0  0  0  0  0  0  0
   -1.5472  -10.4518   29.1257 H   0  0  0  0  0  0  0  0  0  0  0  0
   -3.4886  -11.1708   27.9536 H   0  0  0  0  0  0  0  0  0  0  0  0
   -2.8736  -10.5885   26.3787 H   0  0  0  0  0  0  0  0  0  0  0  0
    4.8027  -13.4754   27.0920 H   0  0  0  0  0  0  0  0  0  0  0  0
    5.0992  -12.7645   25.3415 H   0  0  0  0  0  0  0  0  0  0  0  0
    6.2803  -11.5649   26.3017 H   0  0  0  0  0  0  0  0  0  0  0  0
    6.2990  -12.4990   27.7271 H   0  0  0  0  0  0  0  0  0  0  0  0
  1  2  1  0
  2  3  1  0
  3  4  1  0
  4  5  1  0
  3  6  1  0
  6  7  2  0
  6  8  1  0
  8  9  1  0
  9 10  1  0
 10 11  1  0
 11 12  1  0
 12 13  1  0
 13 14  2  0
 13 15  1  0
 15 16  2  0
 16 17  1  0
 17 18  2  0
 18 19  1  0
 19 20  1  0
 20 21  1  0
 21 22  1  0
 12 23  1  0
 23 24  1  0
 24  9  1  0
 19 15  1  0
 22 18  1  0
  1 25  1  0
  1 26  1  0
  1 27  1  0
  2 28  1  0
  2 29  1  0
  3 30  1  0
  4 31  1  0
  4 32  1  0
  5 33  1  0
  5 34  1  0
  5 35  1  0
  8 36  1  0
  9 37  1  0
 10 38  1  0
 10 39  1  0
 11 40  1  0
 11 41  1  0
 16 42  1  0
 20 43  1  0
 20 44  1  0
 21 45  1  0
 21 46  1  0
 22 47  1  0
 22 48  1  0
 23 49  1  0
 23 50  1  0
 24 51  1  0
 24 52  1  0
M  END
>  <Energy>  (41) 
662.34357124479436

>  <compound_id>  (41) 
76308

>  <target_id>  (41) 
1

>  <reference_id>  (41) 
27

>  <inspiration_ids>  (41) 
[27, 35]

>  <energy_score>  (41) 
640.1608398429712

>  <distance_score>  (41) 
15.240098244102992

>  <path>  (41) 
/opt/xchem-fragalysis-2/maxwin/BulkDock/SCRATCH/511022/C76308-P27/C76308-P27.minimised.mol

>  <scratch_subdir>  (41) 
/opt/xchem-fragalysis-2/maxwin/BulkDock/SCRATCH/511022/C76308-P27

>  <fragmenstein_runtime>  (41) 
32.78610801696777

>  <fragmenstein_outcome>  (41) 
too moved

>  <fragmenstein_mode>  (41) 
expansion

>  <fragmenstein_error>  (41) 


$$$$
C76308-P35
     RDKit          3D

 52 54  0  0  0  0  0  0  0  0999 V2000
    8.8085   -9.6604   20.1450 C   0  0  0  0  0  0  0  0  0  0  0  0
    7.3220   -9.5091   20.4125 C   0  0  0  0  0  0  0  0  0  0  0  0
    6.4290   -9.2496   19.1755 C   0  0  0  0  0  0  0  0  0  0  0  0
    5.8447   -7.8199   19.1120 C   0  0  0  0  0  0  0  0  0  0  0  0
    5.4356   -7.3890   17.7049 C   0  0  0  0  0  0  0  0  0  0  0  0
    5.3125  -10.3235   19.1136 C   0  0  0  0  0  0  0  0  0  0  0  0
    5.1468  -10.8813   18.0668 O   0  0  0  0  0  0  0  0  0  0  0  0
    4.6993  -10.5405   20.4056 N   0  0  0  0  0  0  0  0  0  0  0  0
    3.7705  -11.5554   20.8553 C   0  0  0  0  0  0  0  0  0  0  0  0
    4.2494  -12.9167   20.4641 C   0  0  0  0  0  0  0  0  0  0  0  0
    3.1350  -13.7720   21.0858 C   0  0  0  0  0  0  0  0  0  0  0  0
    2.8249  -14.8640   22.7992 N   0  0  0  0  0  0  0  0  0  0  0  0
    3.6754  -16.6315   23.2727 C   0  0  0  0  0  0  0  0  0  0  0  0
    4.6913  -16.4403   23.8967 O   0  0  0  0  0  0  0  0  0  0  0  0
    3.4549  -18.6779   22.8808 C   0  0  0  0  0  0  0  0  0  0  0  0
    3.7636  -19.3689   21.2469 C   0  0  0  0  0  0  0  0  0  0  0  0
    2.6261  -19.5553   20.3835 N   0  0  0  0  0  0  0  0  0  0  0  0
    1.7709  -19.9645   21.2737 C   0  0  0  0  0  0  0  0  0  0  0  0
    2.6915  -20.1181   22.3287 N   0  0  0  0  0  0  0  0  0  0  0  0
    3.1324  -21.6082   22.0487 C   0  0  0  0  0  0  0  0  0  0  0  0
    1.8563  -22.2686   21.3872 C   0  0  0  0  0  0  0  0  0  0  0  0
    0.8553  -21.1222   21.1378 C   0  0  0  0  0  0  0  0  0  0  0  0
    3.2447  -13.1346   23.2678 C   0  0  0  0  0  0  0  0  0  0  0  0
    3.4437  -11.6155   22.3629 C   0  0  0  0  0  0  0  0  0  0  0  0
    8.9847  -10.3753   19.3361 H   0  0  0  0  0  0  0  0  0  0  0  0
    9.3050  -10.0576   21.0378 H   0  0  0  0  0  0  0  0  0  0  0  0
    9.2868   -8.7201   19.9215 H   0  0  0  0  0  0  0  0  0  0  0  0
    7.1095   -8.7657   21.1823 H   0  0  0  0  0  0  0  0  0  0  0  0
    7.0562  -10.4688   20.8748 H   0  0  0  0  0  0  0  0  0  0  0  0
    7.0469   -9.4121   18.2827 H   0  0  0  0  0  0  0  0  0  0  0  0
    6.5566   -7.0883   19.4838 H   0  0  0  0  0  0  0  0  0  0  0  0
    4.9657   -7.7494   19.7642 H   0  0  0  0  0  0  0  0  0  0  0  0
    4.6497   -8.0428   17.3136 H   0  0  0  0  0  0  0  0  0  0  0  0
    5.0396   -6.3693   17.7258 H   0  0  0  0  0  0  0  0  0  0  0  0
    6.2712   -7.4122   17.0052 H   0  0  0  0  0  0  0  0  0  0  0  0
    5.0196   -9.8263   21.0474 H   0  0  0  0  0  0  0  0  0  0  0  0
    2.8470  -11.3148   20.3111 H   0  0  0  0  0  0  0  0  0  0  0  0
    5.2929  -13.1599   20.6274 H   0  0  0  0  0  0  0  0  0  0  0  0
    4.1662  -13.0092   19.3703 H   0  0  0  0  0  0  0  0  0  0  0  0
    2.9026  -14.5758   20.2916 H   0  0  0  0  0  0  0  0  0  0  0  0
    2.2698  -13.3854   20.4526 H   0  0  0  0  0  0  0  0  0  0  0  0
    4.6152  -18.9889   20.6572 H   0  0  0  0  0  0  0  0  0  0  0  0
    3.5311  -22.1177   22.9265 H   0  0  0  0  0  0  0  0  0  0  0  0
    3.9251  -21.6121   21.2890 H   0  0  0  0  0  0  0  0  0  0  0  0
    1.4223  -23.0829   21.9755 H   0  0  0  0  0  0  0  0  0  0  0  0
    2.1577  -22.7204   20.4329 H   0  0  0  0  0  0  0  0  0  0  0  0
    0.4051  -21.1889   20.1441 H   0  0  0  0  0  0  0  0  0  0  0  0
    0.0644  -21.0972   21.8929 H   0  0  0  0  0  0  0  0  0  0  0  0
    2.4508  -12.7056   23.9189 H   0  0  0  0  0  0  0  0  0  0  0  0
    3.6446  -13.3732   24.2459 H   0  0  0  0  0  0  0  0  0  0  0  0
    2.5303  -11.0268   22.5368 H   0  0  0  0  0  0  0  0  0  0  0  0
    4.2236  -11.0126   22.8066 H   0  0  0  0  0  0  0  0  0  0  0  0
  1  2  1  0
  2  3  1  0
  3  4  1  0
  4  5  1  0
  3  6  1  0
  6  7  2  0
  6  8  1  0
  8  9  1  0
  9 10  1  0
 10 11  1  0
 11 12  1  0
 12 13  1  0
 13 14  2  0
 13 15  1  0
 15 16  2  0
 16 17  1  0
 17 18  2  0
 18 19  1  0
 19 20  1  0
 20 21  1  0
 21 22  1  0
 12 23  1  0
 23 24  1  0
 24  9  1  0
 19 15  1  0
 22 18  1  0
  1 25  1  0
  1 26  1  0
  1 27  1  0
  2 28  1  0
  2 29  1  0
  3 30  1  0
  4 31  1  0
  4 32  1  0
  5 33  1  0
  5 34  1  0
  5 35  1  0
  8 36  1  0
  9 37  1  0
 10 38  1  0
 10 39  1  0
 11 40  1  0
 11 41  1  0
 16 42  1  0
 20 43  1  0
 20 44  1  0
 21 45  1  0
 21 46  1  0
 22 47  1  0
 22 48  1  0
 23 49  1  0
 23 50  1  0
 24 51  1  0
 24 52  1  0
M  END
>  <Energy>  (42) 
847.72062605907263

>  <compound_id>  (42) 
76308

>  <target_id>  (42) 
1

>  <reference_id>  (42) 
35

>  <inspiration_ids>  (42) 
[27, 35]

>  <energy_score>  (42) 
825.5378946572519

>  <distance_score>  (42) 
14.852873217815338

>  <path>  (42) 
/opt/xchem-fragalysis-2/maxwin/BulkDock/SCRATCH/511022/C76308-P35/C76308-P35.minimised.mol

>  <scratch_subdir>  (42) 
/opt/xchem-fragalysis-2/maxwin/BulkDock/SCRATCH/511022/C76308-P35

>  <fragmenstein_runtime>  (42) 
35.07844352722168

>  <fragmenstein_outcome>  (42) 
too moved

>  <fragmenstein_mode>  (42) 
expansion

>  <fragmenstein_error>  (42) 


$$$$
C76298-P27
     RDKit          3D

 55 57  0  0  0  0  0  0  0  0999 V2000
   13.3863   -6.2988   23.4316 C   0  0  0  0  0  0  0  0  0  0  0  0
   12.4344   -7.3002   24.1053 C   0  0  0  0  0  0  0  0  0  0  0  0
   11.5266   -6.8639   25.3330 C   0  0  0  0  0  0  0  0  0  0  0  0
   11.3749   -5.3306   25.3877 C   0  0  0  0  0  0  0  0  0  0  0  0
   12.4841   -4.5966   26.1164 C   0  0  0  0  0  0  0  0  0  0  0  0
   10.1109   -7.6719   25.3277 C   0  0  0  0  0  0  0  0  0  0  0  0
    9.9073   -8.3942   24.3902 O   0  0  0  0  0  0  0  0  0  0  0  0
    9.2927   -7.3807   26.4916 N   0  0  0  0  0  0  0  0  0  0  0  0
    7.9921   -7.9557   26.9404 C   0  0  0  0  0  0  0  0  0  0  0  0
    6.7886   -7.4969   26.0848 C   0  0  0  0  0  0  0  0  0  0  0  0
    5.3903   -7.5985   26.7975 C   0  0  0  0  0  0  0  0  0  0  0  0
    5.3037   -8.7123   27.8807 C   0  0  0  0  0  0  0  0  0  0  0  0
    3.9267   -9.1068   28.4457 N   0  0  0  0  0  0  0  0  0  0  0  0
    2.5941   -9.1039   27.8247 C   0  0  0  0  0  0  0  0  0  0  0  0
    2.2375   -8.7157   26.7464 O   0  0  0  0  0  0  0  0  0  0  0  0
    1.4455   -9.8170   28.6402 C   0  0  0  0  0  0  0  0  0  0  0  0
    0.2068  -10.1978   28.0673 C   0  0  0  0  0  0  0  0  0  0  0  0
   -0.5177  -10.7709   29.0536 N   0  0  0  0  0  0  0  0  0  0  0  0
    0.2083  -10.7405   30.2002 C   0  0  0  0  0  0  0  0  0  0  0  0
    1.4247  -10.2466   29.9943 N   0  0  0  0  0  0  0  0  0  0  0  0
   -0.5870  -11.2974   31.3354 C   0  0  0  0  0  0  0  0  0  0  0  0
   -1.8311  -11.9149   30.6380 C   0  0  0  0  0  0  0  0  0  0  0  0
   -1.8491  -11.3396   29.2063 C   0  0  0  0  0  0  0  0  0  0  0  0
    6.3936   -8.4015   28.9411 C   0  0  0  0  0  0  0  0  0  0  0  0
    7.6829   -7.6873   28.4152 C   0  0  0  0  0  0  0  0  0  0  0  0
   13.8764   -6.7885   22.5822 H   0  0  0  0  0  0  0  0  0  0  0  0
   12.8797   -5.4156   23.0391 H   0  0  0  0  0  0  0  0  0  0  0  0
   14.1807   -5.9928   24.1159 H   0  0  0  0  0  0  0  0  0  0  0  0
   11.8174   -7.7228   23.3070 H   0  0  0  0  0  0  0  0  0  0  0  0
   13.0401   -8.1489   24.4517 H   0  0  0  0  0  0  0  0  0  0  0  0
   12.0320   -7.2010   26.2487 H   0  0  0  0  0  0  0  0  0  0  0  0
   10.4293   -5.0613   25.8683 H   0  0  0  0  0  0  0  0  0  0  0  0
   11.3701   -4.9151   24.3865 H   0  0  0  0  0  0  0  0  0  0  0  0
   13.4708   -4.7726   25.6883 H   0  0  0  0  0  0  0  0  0  0  0  0
   12.2996   -3.5174   26.0923 H   0  0  0  0  0  0  0  0  0  0  0  0
   12.5180   -4.9035   27.1671 H   0  0  0  0  0  0  0  0  0  0  0  0
    9.8172   -6.7859   27.1241 H   0  0  0  0  0  0  0  0  0  0  0  0
    8.1025   -9.0390   26.8024 H   0  0  0  0  0  0  0  0  0  0  0  0
    6.7636   -8.1004   25.1685 H   0  0  0  0  0  0  0  0  0  0  0  0
    6.9281   -6.4587   25.7579 H   0  0  0  0  0  0  0  0  0  0  0  0
    5.1715   -6.6352   27.2773 H   0  0  0  0  0  0  0  0  0  0  0  0
    4.6175   -7.7247   26.0330 H   0  0  0  0  0  0  0  0  0  0  0  0
    5.6296   -9.6426   27.4006 H   0  0  0  0  0  0  0  0  0  0  0  0
    3.8755   -9.5902   29.3399 H   0  0  0  0  0  0  0  0  0  0  0  0
   -0.1640  -10.0656   27.0608 H   0  0  0  0  0  0  0  0  0  0  0  0
   -0.0416  -12.0443   31.9163 H   0  0  0  0  0  0  0  0  0  0  0  0
   -0.8913  -10.4858   32.0047 H   0  0  0  0  0  0  0  0  0  0  0  0
   -2.7547  -11.6855   31.1796 H   0  0  0  0  0  0  0  0  0  0  0  0
   -1.7458  -13.0065   30.6129 H   0  0  0  0  0  0  0  0  0  0  0  0
   -2.5684  -10.5225   29.0995 H   0  0  0  0  0  0  0  0  0  0  0  0
   -2.0024  -12.1024   28.4393 H   0  0  0  0  0  0  0  0  0  0  0  0
    6.6836   -9.3457   29.4200 H   0  0  0  0  0  0  0  0  0  0  0  0
    5.9623   -7.7847   29.7397 H   0  0  0  0  0  0  0  0  0  0  0  0
    8.5310   -7.9867   29.0432 H   0  0  0  0  0  0  0  0  0  0  0  0
    7.5681   -6.6054   28.5654 H   0  0  0  0  0  0  0  0  0  0  0  0
  1  2  1  0
  2  3  1  0
  3  4  1  0
  4  5  1  0
  3  6  1  0
  6  7  2  0
  6  8  1  0
  8  9  1  0
  9 10  1  0
 10 11  1  0
 11 12  1  0
 12 13  1  0
 13 14  1  0
 14 15  2  0
 14 16  1  0
 16 17  2  0
 17 18  1  0
 18 19  1  0
 19 20  2  0
 19 21  1  0
 21 22  1  0
 22 23  1  0
 12 24  1  0
 24 25  1  0
 25  9  1  0
 20 16  1  0
 23 18  1  0
  1 26  1  0
  1 27  1  0
  1 28  1  0
  2 29  1  0
  2 30  1  0
  3 31  1  0
  4 32  1  0
  4 33  1  0
  5 34  1  0
  5 35  1  0
  5 36  1  0
  8 37  1  0
  9 38  1  0
 10 39  1  0
 10 40  1  0
 11 41  1  0
 11 42  1  0
 12 43  1  0
 13 44  1  0
 17 45  1  0
 21 46  1  0
 21 47  1  0
 22 48  1  0
 22 49  1  0
 23 50  1  0
 23 51  1  0
 24 52  1  0
 24 53  1  0
 25 54  1  0
 25 55  1  0
M  END
>  <Energy>  (43) 
61.534296443318944

>  <compound_id>  (43) 
76298

>  <target_id>  (43) 
1

>  <reference_id>  (43) 
27

>  <inspiration_ids>  (43) 
[27, 35]

>  <energy_score>  (43) 
-3.137516186557093

>  <distance_score>  (43) 
14.50074689863058

>  <path>  (43) 
/opt/xchem-fragalysis-2/maxwin/BulkDock/SCRATCH/511022/C76298-P27/C76298-P27.minimised.mol

>  <scratch_subdir>  (43) 
/opt/xchem-fragalysis-2/maxwin/BulkDock/SCRATCH/511022/C76298-P27

>  <fragmenstein_runtime>  (43) 
70.15045356750488

>  <fragmenstein_outcome>  (43) 
too moved

>  <fragmenstein_mode>  (43) 
expansion

>  <fragmenstein_error>  (43) 


$$$$
C76298-P35
     RDKit          3D

 55 57  0  0  0  0  0  0  0  0999 V2000
   13.5546   -8.9063   22.3168 C   0  0  0  0  0  0  0  0  0  0  0  0
   13.2437   -9.5172   23.6914 C   0  0  0  0  0  0  0  0  0  0  0  0
   11.7356   -9.5486   24.0698 C   0  0  0  0  0  0  0  0  0  0  0  0
   11.1618   -8.1355   24.0226 C   0  0  0  0  0  0  0  0  0  0  0  0
   12.0011   -7.0472   24.6910 C   0  0  0  0  0  0  0  0  0  0  0  0
   11.3795  -10.3019   25.4065 C   0  0  0  0  0  0  0  0  0  0  0  0
   12.2734  -10.6696   26.1141 O   0  0  0  0  0  0  0  0  0  0  0  0
    9.9363  -10.5110   25.5090 N   0  0  0  0  0  0  0  0  0  0  0  0
    9.1430  -11.3162   26.4539 C   0  0  0  0  0  0  0  0  0  0  0  0
    8.3049  -10.5158   27.4692 C   0  0  0  0  0  0  0  0  0  0  0  0
    7.2935  -11.4736   28.2152 C   0  0  0  0  0  0  0  0  0  0  0  0
    6.1212  -12.0794   27.2594 C   0  0  0  0  0  0  0  0  0  0  0  0
    4.8793  -13.2061   27.8777 N   0  0  0  0  0  0  0  0  0  0  0  0
    3.9559  -14.5579   27.0844 C   0  0  0  0  0  0  0  0  0  0  0  0
    4.0924  -14.7455   25.9116 O   0  0  0  0  0  0  0  0  0  0  0  0
    2.6330  -15.8105   27.8123 C   0  0  0  0  0  0  0  0  0  0  0  0
    1.9616  -16.9813   27.3267 C   0  0  0  0  0  0  0  0  0  0  0  0
    0.6030  -17.3506   28.0024 N   0  0  0  0  0  0  0  0  0  0  0  0
    0.6070  -16.8999   29.2629 C   0  0  0  0  0  0  0  0  0  0  0  0
    1.5523  -16.0304   29.2154 N   0  0  0  0  0  0  0  0  0  0  0  0
   -0.5327  -17.3182   30.1069 C   0  0  0  0  0  0  0  0  0  0  0  0
   -1.2545  -18.3083   29.1666 C   0  0  0  0  0  0  0  0  0  0  0  0
   -0.8142  -17.8037   27.7724 C   0  0  0  0  0  0  0  0  0  0  0  0
    6.7330  -11.9957   25.8604 C   0  0  0  0  0  0  0  0  0  0  0  0
    8.2284  -12.2988   25.7060 C   0  0  0  0  0  0  0  0  0  0  0  0
   14.6340   -8.9348   22.1360 H   0  0  0  0  0  0  0  0  0  0  0  0
   13.0725   -9.5081   21.5434 H   0  0  0  0  0  0  0  0  0  0  0  0
   13.2275   -7.8705   22.2137 H   0  0  0  0  0  0  0  0  0  0  0  0
   13.8213   -8.9960   24.4639 H   0  0  0  0  0  0  0  0  0  0  0  0
   13.6187  -10.5489   23.6966 H   0  0  0  0  0  0  0  0  0  0  0  0
   11.2351  -10.1397   23.2876 H   0  0  0  0  0  0  0  0  0  0  0  0
   10.1584   -8.1126   24.4599 H   0  0  0  0  0  0  0  0  0  0  0  0
   11.0606   -7.9263   22.9625 H   0  0  0  0  0  0  0  0  0  0  0  0
   12.9018   -6.8018   24.1237 H   0  0  0  0  0  0  0  0  0  0  0  0
   11.4360   -6.1192   24.8105 H   0  0  0  0  0  0  0  0  0  0  0  0
   12.3052   -7.3627   25.6948 H   0  0  0  0  0  0  0  0  0  0  0  0
    9.4873  -10.1270   24.6889 H   0  0  0  0  0  0  0  0  0  0  0  0
    9.8822  -11.9041   27.0135 H   0  0  0  0  0  0  0  0  0  0  0  0
    7.7605   -9.6960   26.9859 H   0  0  0  0  0  0  0  0  0  0  0  0
    8.9731  -10.0530   28.2054 H   0  0  0  0  0  0  0  0  0  0  0  0
    6.8228  -10.9375   29.0481 H   0  0  0  0  0  0  0  0  0  0  0  0
    7.9386  -12.2418   28.6489 H   0  0  0  0  0  0  0  0  0  0  0  0
    5.5019  -11.1805   27.3255 H   0  0  0  0  0  0  0  0  0  0  0  0
    4.7232  -13.2460   28.8197 H   0  0  0  0  0  0  0  0  0  0  0  0
    2.3588  -17.6430   26.5746 H   0  0  0  0  0  0  0  0  0  0  0  0
   -0.2162  -17.8004   31.0349 H   0  0  0  0  0  0  0  0  0  0  0  0
   -1.1726  -16.4617   30.3400 H   0  0  0  0  0  0  0  0  0  0  0  0
   -0.9046  -19.3297   29.3520 H   0  0  0  0  0  0  0  0  0  0  0  0
   -2.3404  -18.2917   29.2986 H   0  0  0  0  0  0  0  0  0  0  0  0
   -0.9442  -18.4495   26.9100 H   0  0  0  0  0  0  0  0  0  0  0  0
   -1.4465  -16.9240   27.6214 H   0  0  0  0  0  0  0  0  0  0  0  0
    6.1146  -12.5664   25.2309 H   0  0  0  0  0  0  0  0  0  0  0  0
    6.6364  -10.9657   25.4940 H   0  0  0  0  0  0  0  0  0  0  0  0
    8.4926  -12.3458   24.6436 H   0  0  0  0  0  0  0  0  0  0  0  0
    8.3916  -13.2884   26.1182 H   0  0  0  0  0  0  0  0  0  0  0  0
  1  2  1  0
  2  3  1  0
  3  4  1  0
  4  5  1  0
  3  6  1  0
  6  7  2  0
  6  8  1  0
  8  9  1  0
  9 10  1  0
 10 11  1  0
 11 12  1  0
 12 13  1  0
 13 14  1  0
 14 15  2  0
 14 16  1  0
 16 17  2  0
 17 18  1  0
 18 19  1  0
 19 20  2  0
 19 21  1  0
 21 22  1  0
 22 23  1  0
 12 24  1  0
 24 25  1  0
 25  9  1  0
 20 16  1  0
 23 18  1  0
  1 26  1  0
  1 27  1  0
  1 28  1  0
  2 29  1  0
  2 30  1  0
  3 31  1  0
  4 32  1  0
  4 33  1  0
  5 34  1  0
  5 35  1  0
  5 36  1  0
  8 37  1  0
  9 38  1  0
 10 39  1  0
 10 40  1  0
 11 41  1  0
 11 42  1  0
 12 43  1  0
 13 44  1  0
 17 45  1  0
 21 46  1  0
 21 47  1  0
 22 48  1  0
 22 49  1  0
 23 50  1  0
 23 51  1  0
 24 52  1  0
 24 53  1  0
 25 54  1  0
 25 55  1  0
M  END
>  <Energy>  (44) 
351.86841573920418

>  <compound_id>  (44) 
76298

>  <target_id>  (44) 
1

>  <reference_id>  (44) 
35

>  <inspiration_ids>  (44) 
[27, 35]

>  <energy_score>  (44) 
287.1966031093193

>  <distance_score>  (44) 
13.01139680476752

>  <path>  (44) 
/opt/xchem-fragalysis-2/maxwin/BulkDock/SCRATCH/511022/C76298-P35/C76298-P35.minimised.mol

>  <scratch_subdir>  (44) 
/opt/xchem-fragalysis-2/maxwin/BulkDock/SCRATCH/511022/C76298-P35

>  <fragmenstein_runtime>  (44) 
42.451125621795654

>  <fragmenstein_outcome>  (44) 
too moved

>  <fragmenstein_mode>  (44) 
expansion

>  <fragmenstein_error>  (44) 


$$$$
C76299-P27
     RDKit          3D

 55 57  0  0  0  0  0  0  0  0999 V2000
   15.7220   -6.9044   21.2021 C   0  0  0  0  0  0  0  0  0  0  0  0
   14.7507   -6.9098   22.3828 C   0  0  0  0  0  0  0  0  0  0  0  0
   13.2312   -6.9405   22.0260 C   0  0  0  0  0  0  0  0  0  0  0  0
   13.0116   -5.8749   20.8946 C   0  0  0  0  0  0  0  0  0  0  0  0
   13.1815   -4.4227   21.3461 C   0  0  0  0  0  0  0  0  0  0  0  0
   12.5847   -8.5027   22.1263 C   0  0  0  0  0  0  0  0  0  0  0  0
   13.2820   -9.3051   22.6856 O   0  0  0  0  0  0  0  0  0  0  0  0
   11.2252   -8.6273   21.6018 N   0  0  0  0  0  0  0  0  0  0  0  0
   10.2210   -9.7757   21.6830 C   0  0  0  0  0  0  0  0  0  0  0  0
    9.3340   -9.8629   20.4133 C   0  0  0  0  0  0  0  0  0  0  0  0
    7.8793  -10.4241   20.5242 C   0  0  0  0  0  0  0  0  0  0  0  0
    7.0632   -9.6718   21.5845 C   0  0  0  0  0  0  0  0  0  0  0  0
    5.5749   -9.8575   21.7127 N   0  0  0  0  0  0  0  0  0  0  0  0
    4.4911   -9.6472   20.7429 C   0  0  0  0  0  0  0  0  0  0  0  0
    4.5310   -9.3522   19.5830 O   0  0  0  0  0  0  0  0  0  0  0  0
    3.1221   -9.7282   21.3713 C   0  0  0  0  0  0  0  0  0  0  0  0
    2.6867   -9.2983   22.6261 C   0  0  0  0  0  0  0  0  0  0  0  0
    1.3383   -9.4967   22.8902 N   0  0  0  0  0  0  0  0  0  0  0  0
    0.8714   -9.8093   21.7172 C   0  0  0  0  0  0  0  0  0  0  0  0
    1.8873   -9.9838   20.8046 N   0  0  0  0  0  0  0  0  0  0  0  0
    1.3703   -9.9725   19.4488 C   0  0  0  0  0  0  0  0  0  0  0  0
   -0.1653  -10.0818   19.6201 C   0  0  0  0  0  0  0  0  0  0  0  0
   -0.4707   -9.7248   21.0858 C   0  0  0  0  0  0  0  0  0  0  0  0
    7.8188   -9.9120   22.9255 C   0  0  0  0  0  0  0  0  0  0  0  0
    9.3797   -9.7244   22.9850 C   0  0  0  0  0  0  0  0  0  0  0  0
   15.7552   -5.9381   20.6916 H   0  0  0  0  0  0  0  0  0  0  0  0
   16.7372   -7.0985   21.5656 H   0  0  0  0  0  0  0  0  0  0  0  0
   15.4727   -7.6897   20.4823 H   0  0  0  0  0  0  0  0  0  0  0  0
   15.0067   -7.7538   23.0322 H   0  0  0  0  0  0  0  0  0  0  0  0
   14.9557   -6.0167   22.9874 H   0  0  0  0  0  0  0  0  0  0  0  0
   12.7515   -6.5135   22.9226 H   0  0  0  0  0  0  0  0  0  0  0  0
   12.0393   -5.9485   20.4346 H   0  0  0  0  0  0  0  0  0  0  0  0
   13.7252   -5.9894   20.0830 H   0  0  0  0  0  0  0  0  0  0  0  0
   14.2045   -4.2222   21.6771 H   0  0  0  0  0  0  0  0  0  0  0  0
   12.9718   -3.7412   20.5168 H   0  0  0  0  0  0  0  0  0  0  0  0
   12.5089   -4.1819   22.1726 H   0  0  0  0  0  0  0  0  0  0  0  0
   10.9817   -7.7839   21.1223 H   0  0  0  0  0  0  0  0  0  0  0  0
   10.8380  -10.6817   21.7323 H   0  0  0  0  0  0  0  0  0  0  0  0
    9.2437   -8.8611   19.9993 H   0  0  0  0  0  0  0  0  0  0  0  0
    9.8702  -10.4601   19.6666 H   0  0  0  0  0  0  0  0  0  0  0  0
    7.9130  -11.4946   20.7595 H   0  0  0  0  0  0  0  0  0  0  0  0
    7.3902  -10.3331   19.5472 H   0  0  0  0  0  0  0  0  0  0  0  0
    7.0916   -8.6228   21.2959 H   0  0  0  0  0  0  0  0  0  0  0  0
    5.1799  -10.1778   22.5852 H   0  0  0  0  0  0  0  0  0  0  0  0
    3.3023   -8.7707   23.3440 H   0  0  0  0  0  0  0  0  0  0  0  0
    1.6484   -9.0122   19.0017 H   0  0  0  0  0  0  0  0  0  0  0  0
    1.8044  -10.7897   18.8703 H   0  0  0  0  0  0  0  0  0  0  0  0
   -0.5086  -11.0918   19.3785 H   0  0  0  0  0  0  0  0  0  0  0  0
   -0.6879   -9.4133   18.9269 H   0  0  0  0  0  0  0  0  0  0  0  0
   -1.2293  -10.3880   21.4957 H   0  0  0  0  0  0  0  0  0  0  0  0
   -0.8429   -8.6968   21.1541 H   0  0  0  0  0  0  0  0  0  0  0  0
    7.3681   -9.2853   23.7064 H   0  0  0  0  0  0  0  0  0  0  0  0
    7.6083  -10.9440   23.2396 H   0  0  0  0  0  0  0  0  0  0  0  0
    9.7650  -10.5042   23.6578 H   0  0  0  0  0  0  0  0  0  0  0  0
    9.5964   -8.7998   23.5352 H   0  0  0  0  0  0  0  0  0  0  0  0
  1  2  1  0
  2  3  1  0
  3  4  1  0
  4  5  1  0
  3  6  1  0
  6  7  2  0
  6  8  1  0
  8  9  1  0
  9 10  1  0
 10 11  1  0
 11 12  1  0
 12 13  1  0
 13 14  1  0
 14 15  2  0
 14 16  1  0
 16 17  2  0
 17 18  1  0
 18 19  2  0
 19 20  1  0
 20 21  1  0
 21 22  1  0
 22 23  1  0
 12 24  1  0
 24 25  1  0
 25  9  1  0
 20 16  1  0
 23 19  1  0
  1 26  1  0
  1 27  1  0
  1 28  1  0
  2 29  1  0
  2 30  1  0
  3 31  1  0
  4 32  1  0
  4 33  1  0
  5 34  1  0
  5 35  1  0
  5 36  1  0
  8 37  1  0
  9 38  1  0
 10 39  1  0
 10 40  1  0
 11 41  1  0
 11 42  1  0
 12 43  1  0
 13 44  1  0
 17 45  1  0
 21 46  1  0
 21 47  1  0
 22 48  1  0
 22 49  1  0
 23 50  1  0
 23 51  1  0
 24 52  1  0
 24 53  1  0
 25 54  1  0
 25 55  1  0
M  END
>  <Energy>  (45) 
26.281765956477564

>  <compound_id>  (45) 
76299

>  <target_id>  (45) 
1

>  <reference_id>  (45) 
27

>  <inspiration_ids>  (45) 
[27, 35]

>  <energy_score>  (45) 
11.005602101318914

>  <distance_score>  (45) 
15.661684814859926

>  <path>  (45) 
/opt/xchem-fragalysis-2/maxwin/BulkDock/SCRATCH/511022/C76299-P27/C76299-P27.minimised.mol

>  <scratch_subdir>  (45) 
/opt/xchem-fragalysis-2/maxwin/BulkDock/SCRATCH/511022/C76299-P27

>  <fragmenstein_runtime>  (45) 
43.23929953575134

>  <fragmenstein_outcome>  (45) 
too moved

>  <fragmenstein_mode>  (45) 
expansion

>  <fragmenstein_error>  (45) 


$$$$
C76299-P35
     RDKit          3D

 55 57  0  0  0  0  0  0  0  0999 V2000
   11.7456   -7.7438   24.7110 C   0  0  0  0  0  0  0  0  0  0  0  0
   10.7197   -8.7674   24.2285 C   0  0  0  0  0  0  0  0  0  0  0  0
    9.4408   -9.0360   25.1129 C   0  0  0  0  0  0  0  0  0  0  0  0
    8.3915   -7.9037   25.0194 C   0  0  0  0  0  0  0  0  0  0  0  0
    8.7115   -6.6182   25.7611 C   0  0  0  0  0  0  0  0  0  0  0  0
    8.7431  -10.3554   24.5926 C   0  0  0  0  0  0  0  0  0  0  0  0
    8.8635  -10.5755   23.4179 O   0  0  0  0  0  0  0  0  0  0  0  0
    7.9904  -11.0648   25.6180 N   0  0  0  0  0  0  0  0  0  0  0  0
    7.2281  -12.3166   25.5549 C   0  0  0  0  0  0  0  0  0  0  0  0
    5.9447  -12.5149   26.2910 C   0  0  0  0  0  0  0  0  0  0  0  0
    4.7226  -13.8247   25.8253 C   0  0  0  0  0  0  0  0  0  0  0  0
    5.1448  -15.2007   25.4814 C   0  0  0  0  0  0  0  0  0  0  0  0
    3.6231  -16.5200   25.9422 N   0  0  0  0  0  0  0  0  0  0  0  0
    2.6428  -17.7709   24.8523 C   0  0  0  0  0  0  0  0  0  0  0  0
    3.1082  -17.8300   23.8194 O   0  0  0  0  0  0  0  0  0  0  0  0
    0.9254  -18.7932   24.8482 C   0  0  0  0  0  0  0  0  0  0  0  0
   -0.4632  -18.3621   25.8959 C   0  0  0  0  0  0  0  0  0  0  0  0
   -2.0349  -18.7502   25.0442 N   0  0  0  0  0  0  0  0  0  0  0  0
   -1.8077  -19.5073   23.7021 C   0  0  0  0  0  0  0  0  0  0  0  0
   -0.0688  -19.4420   23.4181 N   0  0  0  0  0  0  0  0  0  0  0  0
    0.0361  -20.2223   22.1871 C   0  0  0  0  0  0  0  0  0  0  0  0
   -1.1996  -21.1915   22.2177 C   0  0  0  0  0  0  0  0  0  0  0  0
   -2.4461  -20.4428   22.7773 C   0  0  0  0  0  0  0  0  0  0  0  0
    7.1326  -15.1835   25.9289 C   0  0  0  0  0  0  0  0  0  0  0  0
    7.9765  -13.5115   26.0536 C   0  0  0  0  0  0  0  0  0  0  0  0
   12.6545   -7.8238   24.1046 H   0  0  0  0  0  0  0  0  0  0  0  0
   12.0220   -7.9467   25.7506 H   0  0  0  0  0  0  0  0  0  0  0  0
   11.4150   -6.7114   24.6457 H   0  0  0  0  0  0  0  0  0  0  0  0
   11.2585   -9.7235   24.1598 H   0  0  0  0  0  0  0  0  0  0  0  0
   10.4330   -8.5360   23.2006 H   0  0  0  0  0  0  0  0  0  0  0  0
    9.7502   -9.1962   26.1522 H   0  0  0  0  0  0  0  0  0  0  0  0
    8.1508   -7.6807   23.9833 H   0  0  0  0  0  0  0  0  0  0  0  0
    7.4474   -8.2777   25.4397 H   0  0  0  0  0  0  0  0  0  0  0  0
    8.7534   -6.8123   26.8385 H   0  0  0  0  0  0  0  0  0  0  0  0
    9.6535   -6.1558   25.4857 H   0  0  0  0  0  0  0  0  0  0  0  0
    7.9173   -5.8833   25.5924 H   0  0  0  0  0  0  0  0  0  0  0  0
    8.0496  -10.5484   26.4891 H   0  0  0  0  0  0  0  0  0  0  0  0
    7.0430  -12.3267   24.4885 H   0  0  0  0  0  0  0  0  0  0  0  0
    5.6160  -11.4960   26.4432 H   0  0  0  0  0  0  0  0  0  0  0  0
    6.1298  -12.6820   27.3439 H   0  0  0  0  0  0  0  0  0  0  0  0
    4.1475  -14.0172   26.7562 H   0  0  0  0  0  0  0  0  0  0  0  0
    3.9746  -13.6575   25.0416 H   0  0  0  0  0  0  0  0  0  0  0  0
    5.0546  -15.3813   24.3983 H   0  0  0  0  0  0  0  0  0  0  0  0
    3.2311  -16.5580   26.8943 H   0  0  0  0  0  0  0  0  0  0  0  0
   -0.5619  -17.8774   26.8577 H   0  0  0  0  0  0  0  0  0  0  0  0
    0.9822  -20.7314   22.0547 H   0  0  0  0  0  0  0  0  0  0  0  0
   -0.0908  -19.5078   21.3653 H   0  0  0  0  0  0  0  0  0  0  0  0
   -1.4017  -21.5997   21.2221 H   0  0  0  0  0  0  0  0  0  0  0  0
   -0.9668  -22.0404   22.8738 H   0  0  0  0  0  0  0  0  0  0  0  0
   -3.1350  -21.1306   23.2721 H   0  0  0  0  0  0  0  0  0  0  0  0
   -2.9652  -19.9109   21.9756 H   0  0  0  0  0  0  0  0  0  0  0  0
    7.8484  -15.5523   25.2230 H   0  0  0  0  0  0  0  0  0  0  0  0
    7.5155  -15.8663   26.6800 H   0  0  0  0  0  0  0  0  0  0  0  0
    8.8775  -13.5502   25.4230 H   0  0  0  0  0  0  0  0  0  0  0  0
    8.2837  -13.3612   27.0975 H   0  0  0  0  0  0  0  0  0  0  0  0
  1  2  1  0
  2  3  1  0
  3  4  1  0
  4  5  1  0
  3  6  1  0
  6  7  2  0
  6  8  1  0
  8  9  1  0
  9 10  1  0
 10 11  1  0
 11 12  1  0
 12 13  1  0
 13 14  1  0
 14 15  2  0
 14 16  1  0
 16 17  2  0
 17 18  1  0
 18 19  2  0
 19 20  1  0
 20 21  1  0
 21 22  1  0
 22 23  1  0
 12 24  1  0
 24 25  1  0
 25  9  1  0
 20 16  1  0
 23 19  1  0
  1 26  1  0
  1 27  1  0
  1 28  1  0
  2 29  1  0
  2 30  1  0
  3 31  1  0
  4 32  1  0
  4 33  1  0
  5 34  1  0
  5 35  1  0
  5 36  1  0
  8 37  1  0
  9 38  1  0
 10 39  1  0
 10 40  1  0
 11 41  1  0
 11 42  1  0
 12 43  1  0
 13 44  1  0
 17 45  1  0
 21 46  1  0
 21 47  1  0
 22 48  1  0
 22 49  1  0
 23 50  1  0
 23 51  1  0
 24 52  1  0
 24 53  1  0
 25 54  1  0
 25 55  1  0
M  END
>  <Energy>  (46) 
691.88010487730105

>  <compound_id>  (46) 
76299

>  <target_id>  (46) 
1

>  <reference_id>  (46) 
35

>  <inspiration_ids>  (46) 
[27, 35]

>  <energy_score>  (46) 
676.6039410221251

>  <distance_score>  (46) 
13.611798757956567

>  <path>  (46) 
/opt/xchem-fragalysis-2/maxwin/BulkDock/SCRATCH/511022/C76299-P35/C76299-P35.minimised.mol

>  <scratch_subdir>  (46) 
/opt/xchem-fragalysis-2/maxwin/BulkDock/SCRATCH/511022/C76299-P35

>  <fragmenstein_runtime>  (46) 
39.957430601119995

>  <fragmenstein_outcome>  (46) 
too moved

>  <fragmenstein_mode>  (46) 
expansion

>  <fragmenstein_error>  (46) 


$$$$
C76309-P27
     RDKit          3D

 52 54  0  0  0  0  0  0  0  0999 V2000
   13.3265   -5.2389   25.2563 C   0  0  0  0  0  0  0  0  0  0  0  0
   12.0433   -5.9166   24.7871 C   0  0  0  0  0  0  0  0  0  0  0  0
   12.1334   -7.4560   24.5655 C   0  0  0  0  0  0  0  0  0  0  0  0
   12.6756   -7.8108   23.1183 C   0  0  0  0  0  0  0  0  0  0  0  0
   13.6400   -6.8628   22.4079 C   0  0  0  0  0  0  0  0  0  0  0  0
   10.7592   -8.3028   24.8327 C   0  0  0  0  0  0  0  0  0  0  0  0
   10.3564   -8.9559   23.9133 O   0  0  0  0  0  0  0  0  0  0  0  0
   10.2389   -8.1389   26.1629 N   0  0  0  0  0  0  0  0  0  0  0  0
    8.9985   -8.6406   26.7887 C   0  0  0  0  0  0  0  0  0  0  0  0
    7.7581   -8.8153   26.0656 C   0  0  0  0  0  0  0  0  0  0  0  0
    8.0485  -10.3759   26.9124 C   0  0  0  0  0  0  0  0  0  0  0  0
    7.0340  -11.1679   27.3923 N   0  0  0  0  0  0  0  0  0  0  0  0
    6.3775  -12.3910   26.8032 C   0  0  0  0  0  0  0  0  0  0  0  0
    6.6617  -13.0429   25.8433 O   0  0  0  0  0  0  0  0  0  0  0  0
    5.0497  -12.9473   27.7654 C   0  0  0  0  0  0  0  0  0  0  0  0
    3.7549  -14.2016   27.1176 C   0  0  0  0  0  0  0  0  0  0  0  0
    1.9688  -14.1885   27.5601 C   0  0  0  0  0  0  0  0  0  0  0  0
    0.8537  -13.4589   27.1652 C   0  0  0  0  0  0  0  0  0  0  0  0
   -0.2662  -14.1224   27.6354 N   0  0  0  0  0  0  0  0  0  0  0  0
    0.1390  -15.2374   28.2990 C   0  0  0  0  0  0  0  0  0  0  0  0
    1.4485  -15.3257   28.2823 N   0  0  0  0  0  0  0  0  0  0  0  0
    8.7740  -10.3018   26.9024 C   0  0  0  0  0  0  0  0  0  0  0  0
    9.9833  -11.3434   26.3292 C   0  0  0  0  0  0  0  0  0  0  0  0
   10.0706  -10.9170   27.7576 C   0  0  0  0  0  0  0  0  0  0  0  0
   13.6703   -5.6805   26.1972 H   0  0  0  0  0  0  0  0  0  0  0  0
   14.1366   -5.3130   24.5307 H   0  0  0  0  0  0  0  0  0  0  0  0
   13.1417   -4.1743   25.4352 H   0  0  0  0  0  0  0  0  0  0  0  0
   11.7759   -5.3967   23.8722 H   0  0  0  0  0  0  0  0  0  0  0  0
   11.2567   -5.6905   25.5145 H   0  0  0  0  0  0  0  0  0  0  0  0
   12.8510   -7.8632   25.2914 H   0  0  0  0  0  0  0  0  0  0  0  0
   11.8433   -7.9864   22.4310 H   0  0  0  0  0  0  0  0  0  0  0  0
   13.1678   -8.7900   23.1992 H   0  0  0  0  0  0  0  0  0  0  0  0
   13.2155   -5.8703   22.2428 H   0  0  0  0  0  0  0  0  0  0  0  0
   13.9021   -7.2739   21.4282 H   0  0  0  0  0  0  0  0  0  0  0  0
   14.5724   -6.7692   22.9713 H   0  0  0  0  0  0  0  0  0  0  0  0
   10.7928   -7.4432   26.6504 H   0  0  0  0  0  0  0  0  0  0  0  0
    8.9031   -8.1813   27.7814 H   0  0  0  0  0  0  0  0  0  0  0  0
    7.8273   -8.9321   24.9822 H   0  0  0  0  0  0  0  0  0  0  0  0
    6.8516   -8.3323   26.4368 H   0  0  0  0  0  0  0  0  0  0  0  0
    7.4429   -9.7355   27.8680 H   0  0  0  0  0  0  0  0  0  0  0  0
    7.4991  -10.7533   25.8188 H   0  0  0  0  0  0  0  0  0  0  0  0
    5.2580  -13.3412   28.7252 H   0  0  0  0  0  0  0  0  0  0  0  0
    4.7792  -12.0413   28.3168 H   0  0  0  0  0  0  0  0  0  0  0  0
    3.9668  -15.1852   27.5339 H   0  0  0  0  0  0  0  0  0  0  0  0
    3.9069  -14.3187   26.0382 H   0  0  0  0  0  0  0  0  0  0  0  0
    0.7278  -12.5852   26.5451 H   0  0  0  0  0  0  0  0  0  0  0  0
   -1.2245  -13.8450   27.4771 H   0  0  0  0  0  0  0  0  0  0  0  0
   -0.5459  -15.9398   28.7537 H   0  0  0  0  0  0  0  0  0  0  0  0
    9.6757  -12.3614   26.1086 H   0  0  0  0  0  0  0  0  0  0  0  0
   10.6998  -10.9438   25.6227 H   0  0  0  0  0  0  0  0  0  0  0  0
   10.8712  -10.2338   28.0258 H   0  0  0  0  0  0  0  0  0  0  0  0
    9.7962  -11.5814   28.5674 H   0  0  0  0  0  0  0  0  0  0  0  0
  1  2  1  0
  2  3  1  0
  3  4  1  0
  4  5  1  0
  3  6  1  0
  6  7  2  0
  6  8  1  0
  8  9  1  0
  9 10  1  0
 10 11  1  0
 11 12  1  0
 12 13  1  0
 13 14  2  0
 13 15  1  0
 15 16  1  0
 16 17  1  0
 17 18  2  0
 18 19  1  0
 19 20  1  0
 20 21  2  0
 12 22  1  0
 22 23  1  0
 23 24  1  0
 22  9  1  0
 21 17  1  0
 24 22  1  0
  1 25  1  0
  1 26  1  0
  1 27  1  0
  2 28  1  0
  2 29  1  0
  3 30  1  0
  4 31  1  0
  4 32  1  0
  5 33  1  0
  5 34  1  0
  5 35  1  0
  8 36  1  0
  9 37  1  0
 10 38  1  0
 10 39  1  0
 11 40  1  0
 11 41  1  0
 15 42  1  0
 15 43  1  0
 16 44  1  0
 16 45  1  0
 18 46  1  0
 19 47  1  0
 20 48  1  0
 23 49  1  0
 23 50  1  0
 24 51  1  0
 24 52  1  0
M  END
>  <Energy>  (47) 
889.1739446355266

>  <compound_id>  (47) 
76309

>  <target_id>  (47) 
1

>  <reference_id>  (47) 
27

>  <inspiration_ids>  (47) 
[27, 35]

>  <energy_score>  (47) 
861.7319575039252

>  <distance_score>  (47) 
12.773093142924642

>  <path>  (47) 
/opt/xchem-fragalysis-2/maxwin/BulkDock/SCRATCH/511022/C76309-P27/C76309-P27.minimised.mol

>  <scratch_subdir>  (47) 
/opt/xchem-fragalysis-2/maxwin/BulkDock/SCRATCH/511022/C76309-P27

>  <fragmenstein_runtime>  (47) 
27.02296209335327

>  <fragmenstein_outcome>  (47) 
too moved

>  <fragmenstein_mode>  (47) 
expansion

>  <fragmenstein_error>  (47) 


$$$$
C76309-P35
     RDKit          3D

 52 54  0  0  0  0  0  0  0  0999 V2000
   13.7333   -3.7048   22.7786 C   0  0  0  0  0  0  0  0  0  0  0  0
   13.1321   -4.8536   23.5814 C   0  0  0  0  0  0  0  0  0  0  0  0
   13.5063   -6.3112   23.1916 C   0  0  0  0  0  0  0  0  0  0  0  0
   13.6713   -6.5144   21.6568 C   0  0  0  0  0  0  0  0  0  0  0  0
   14.9289   -5.9314   21.0134 C   0  0  0  0  0  0  0  0  0  0  0  0
   12.4475   -7.3689   23.7977 C   0  0  0  0  0  0  0  0  0  0  0  0
   11.7716   -8.0138   23.0469 O   0  0  0  0  0  0  0  0  0  0  0  0
   12.4633   -7.3170   25.2378 N   0  0  0  0  0  0  0  0  0  0  0  0
   11.6061   -7.9525   26.2275 C   0  0  0  0  0  0  0  0  0  0  0  0
   10.2190   -7.5374   26.2758 C   0  0  0  0  0  0  0  0  0  0  0  0
   10.2027   -9.2603   26.3900 C   0  0  0  0  0  0  0  0  0  0  0  0
    9.2283   -9.9343   27.0668 N   0  0  0  0  0  0  0  0  0  0  0  0
    8.3721  -11.2767   26.7920 C   0  0  0  0  0  0  0  0  0  0  0  0
    8.4439  -12.0931   25.9669 O   0  0  0  0  0  0  0  0  0  0  0  0
    7.3246  -11.4030   27.9917 C   0  0  0  0  0  0  0  0  0  0  0  0
    5.9369  -11.8756   27.4553 C   0  0  0  0  0  0  0  0  0  0  0  0
    4.6183  -12.8284   28.0346 C   0  0  0  0  0  0  0  0  0  0  0  0
    3.8156  -14.0292   27.2227 C   0  0  0  0  0  0  0  0  0  0  0  0
    2.1335  -13.7083   27.4127 N   0  0  0  0  0  0  0  0  0  0  0  0
    1.8985  -12.4697   28.1773 C   0  0  0  0  0  0  0  0  0  0  0  0
    3.1255  -11.9094   28.5609 N   0  0  0  0  0  0  0  0  0  0  0  0
   10.8749   -9.4512   26.0464 C   0  0  0  0  0  0  0  0  0  0  0  0
   11.3381  -10.4852   24.8257 C   0  0  0  0  0  0  0  0  0  0  0  0
   12.0108  -10.6625   26.1407 C   0  0  0  0  0  0  0  0  0  0  0  0
   13.3262   -3.6711   21.7652 H   0  0  0  0  0  0  0  0  0  0  0  0
   13.4900   -2.7548   23.2652 H   0  0  0  0  0  0  0  0  0  0  0  0
   14.8239   -3.7752   22.7438 H   0  0  0  0  0  0  0  0  0  0  0  0
   12.0461   -4.7387   23.5787 H   0  0  0  0  0  0  0  0  0  0  0  0
   13.4233   -4.7056   24.6296 H   0  0  0  0  0  0  0  0  0  0  0  0
   14.4709   -6.5585   23.6562 H   0  0  0  0  0  0  0  0  0  0  0  0
   13.7055   -7.5970   21.4823 H   0  0  0  0  0  0  0  0  0  0  0  0
   12.8001   -6.1351   21.1173 H   0  0  0  0  0  0  0  0  0  0  0  0
   15.7798   -5.9694   21.7003 H   0  0  0  0  0  0  0  0  0  0  0  0
   14.7867   -4.9014   20.6813 H   0  0  0  0  0  0  0  0  0  0  0  0
   15.2046   -6.5063   20.1237 H   0  0  0  0  0  0  0  0  0  0  0  0
   13.2254   -6.7188   25.5386 H   0  0  0  0  0  0  0  0  0  0  0  0
   12.1233   -7.9091   27.1964 H   0  0  0  0  0  0  0  0  0  0  0  0
    9.7727   -7.1809   25.3454 H   0  0  0  0  0  0  0  0  0  0  0  0
    9.8545   -7.0422   27.1789 H   0  0  0  0  0  0  0  0  0  0  0  0
   10.2975   -8.9673   27.6327 H   0  0  0  0  0  0  0  0  0  0  0  0
    9.1964   -9.0972   25.6540 H   0  0  0  0  0  0  0  0  0  0  0  0
    7.7995  -12.0357   28.7401 H   0  0  0  0  0  0  0  0  0  0  0  0
    7.2109  -10.4165   28.4583 H   0  0  0  0  0  0  0  0  0  0  0  0
    6.0913  -12.2804   26.4479 H   0  0  0  0  0  0  0  0  0  0  0  0
    5.4580  -10.8922   27.3935 H   0  0  0  0  0  0  0  0  0  0  0  0
    4.0591  -14.5454   26.3068 H   0  0  0  0  0  0  0  0  0  0  0  0
    1.4126  -14.1322   26.8568 H   0  0  0  0  0  0  0  0  0  0  0  0
    0.9042  -12.0797   28.3465 H   0  0  0  0  0  0  0  0  0  0  0  0
   11.9498  -10.1176   24.0140 H   0  0  0  0  0  0  0  0  0  0  0  0
   10.6189  -11.2391   24.5165 H   0  0  0  0  0  0  0  0  0  0  0  0
   13.0517  -10.3657   26.2210 H   0  0  0  0  0  0  0  0  0  0  0  0
   11.7546  -11.5389   26.7280 H   0  0  0  0  0  0  0  0  0  0  0  0
  1  2  1  0
  2  3  1  0
  3  4  1  0
  4  5  1  0
  3  6  1  0
  6  7  2  0
  6  8  1  0
  8  9  1  0
  9 10  1  0
 10 11  1  0
 11 12  1  0
 12 13  1  0
 13 14  2  0
 13 15  1  0
 15 16  1  0
 16 17  1  0
 17 18  2  0
 18 19  1  0
 19 20  1  0
 20 21  2  0
 12 22  1  0
 22 23  1  0
 23 24  1  0
 22  9  1  0
 21 17  1  0
 24 22  1  0
  1 25  1  0
  1 26  1  0
  1 27  1  0
  2 28  1  0
  2 29  1  0
  3 30  1  0
  4 31  1  0
  4 32  1  0
  5 33  1  0
  5 34  1  0
  5 35  1  0
  8 36  1  0
  9 37  1  0
 10 38  1  0
 10 39  1  0
 11 40  1  0
 11 41  1  0
 15 42  1  0
 15 43  1  0
 16 44  1  0
 16 45  1  0
 18 46  1  0
 19 47  1  0
 20 48  1  0
 23 49  1  0
 23 50  1  0
 24 51  1  0
 24 52  1  0
M  END
>  <Energy>  (48) 
897.48032023727978

>  <compound_id>  (48) 
76309

>  <target_id>  (48) 
1

>  <reference_id>  (48) 
35

>  <inspiration_ids>  (48) 
[27, 35]

>  <energy_score>  (48) 
870.0383331056876

>  <distance_score>  (48) 
12.886037178763981

>  <path>  (48) 
/opt/xchem-fragalysis-2/maxwin/BulkDock/SCRATCH/511022/C76309-P35/C76309-P35.minimised.mol

>  <scratch_subdir>  (48) 
/opt/xchem-fragalysis-2/maxwin/BulkDock/SCRATCH/511022/C76309-P35

>  <fragmenstein_runtime>  (48) 
23.644957542419434

>  <fragmenstein_outcome>  (48) 
too moved

>  <fragmenstein_mode>  (48) 
expansion

>  <fragmenstein_error>  (48) 


$$$$
C76310-P27
     RDKit          3D

 51 52  0  0  0  0  0  0  0  0999 V2000
   12.9292   -5.5867   23.9878 C   0  0  0  0  0  0  0  0  0  0  0  0
   12.6006   -7.0686   24.1942 C   0  0  0  0  0  0  0  0  0  0  0  0
   12.6189   -8.0116   22.9754 C   0  0  0  0  0  0  0  0  0  0  0  0
   13.8991   -7.8581   22.0998 C   0  0  0  0  0  0  0  0  0  0  0  0
   14.0507   -6.5522   21.3103 C   0  0  0  0  0  0  0  0  0  0  0  0
   12.3226   -9.5287   23.3689 C   0  0  0  0  0  0  0  0  0  0  0  0
   13.2033  -10.3301   23.2274 O   0  0  0  0  0  0  0  0  0  0  0  0
   10.9242   -9.7086   23.7694 N   0  0  0  0  0  0  0  0  0  0  0  0
   10.1350  -10.9444   24.0280 C   0  0  0  0  0  0  0  0  0  0  0  0
   10.9221  -12.2116   23.7942 C   0  0  0  0  0  0  0  0  0  0  0  0
    9.9992  -13.3641   24.1484 C   0  0  0  0  0  0  0  0  0  0  0  0
    9.1846  -13.1386   25.4551 C   0  0  0  0  0  0  0  0  0  0  0  0
    8.1637  -11.9911   25.5445 N   0  0  0  0  0  0  0  0  0  0  0  0
    7.2665  -12.2033   26.6658 C   0  0  0  0  0  0  0  0  0  0  0  0
    7.3530  -11.8388   27.8161 O   0  0  0  0  0  0  0  0  0  0  0  0
    5.7975  -12.9559   26.3805 C   0  0  0  0  0  0  0  0  0  0  0  0
    4.4830  -14.2662   26.0489 C   0  0  0  0  0  0  0  0  0  0  0  0
    3.7158  -15.1677   27.4068 C   0  0  0  0  0  0  0  0  0  0  0  0
    3.6900  -16.5306   27.6682 C   0  0  0  0  0  0  0  0  0  0  0  0
    2.5166  -17.0935   27.3269 N   0  0  0  0  0  0  0  0  0  0  0  0
    1.7869  -16.2484   28.0498 C   0  0  0  0  0  0  0  0  0  0  0  0
    2.3453  -15.0328   27.8738 N   0  0  0  0  0  0  0  0  0  0  0  0
    9.4641  -11.1297   25.4290 C   0  0  0  0  0  0  0  0  0  0  0  0
   14.0114   -5.4337   23.9545 H   0  0  0  0  0  0  0  0  0  0  0  0
   12.4728   -5.1623   23.0946 H   0  0  0  0  0  0  0  0  0  0  0  0
   12.5659   -5.0129   24.8479 H   0  0  0  0  0  0  0  0  0  0  0  0
   13.2938   -7.4640   24.9487 H   0  0  0  0  0  0  0  0  0  0  0  0
   11.6127   -7.1314   24.6659 H   0  0  0  0  0  0  0  0  0  0  0  0
   11.7921   -7.7865   22.3052 H   0  0  0  0  0  0  0  0  0  0  0  0
   13.9175   -8.6821   21.3760 H   0  0  0  0  0  0  0  0  0  0  0  0
   14.7871   -8.0000   22.7286 H   0  0  0  0  0  0  0  0  0  0  0  0
   13.1042   -6.2223   20.8765 H   0  0  0  0  0  0  0  0  0  0  0  0
   14.7856   -6.6912   20.5105 H   0  0  0  0  0  0  0  0  0  0  0  0
   14.4538   -5.7457   21.9236 H   0  0  0  0  0  0  0  0  0  0  0  0
   10.4450   -8.8217   23.7045 H   0  0  0  0  0  0  0  0  0  0  0  0
    9.3250  -10.8892   23.2883 H   0  0  0  0  0  0  0  0  0  0  0  0
   11.8062  -12.2438   24.4426 H   0  0  0  0  0  0  0  0  0  0  0  0
   11.2689  -12.2958   22.7585 H   0  0  0  0  0  0  0  0  0  0  0  0
   10.5886  -14.2831   24.2501 H   0  0  0  0  0  0  0  0  0  0  0  0
    9.3208  -13.5287   23.3135 H   0  0  0  0  0  0  0  0  0  0  0  0
    8.5942  -14.0505   25.6011 H   0  0  0  0  0  0  0  0  0  0  0  0
    9.8287  -13.1791   26.3516 H   0  0  0  0  0  0  0  0  0  0  0  0
    5.3680  -12.5922   27.3237 H   0  0  0  0  0  0  0  0  0  0  0  0
    5.6677  -12.3713   25.4810 H   0  0  0  0  0  0  0  0  0  0  0  0
    4.9381  -14.9587   25.3475 H   0  0  0  0  0  0  0  0  0  0  0  0
    3.7016  -13.9418   25.3750 H   0  0  0  0  0  0  0  0  0  0  0  0
    4.0895  -17.0292   28.5402 H   0  0  0  0  0  0  0  0  0  0  0  0
    2.3701  -18.0766   27.3396 H   0  0  0  0  0  0  0  0  0  0  0  0
    0.9827  -16.5348   28.7009 H   0  0  0  0  0  0  0  0  0  0  0  0
    9.0493  -10.1353   25.6608 H   0  0  0  0  0  0  0  0  0  0  0  0
   10.1693  -11.2499   26.2688 H   0  0  0  0  0  0  0  0  0  0  0  0
  1  2  1  0
  2  3  1  0
  3  4  1  0
  4  5  1  0
  3  6  1  0
  6  7  2  0
  6  8  1  0
  8  9  1  0
  9 10  1  0
 10 11  1  0
 11 12  1  0
 12 13  1  0
 13 14  1  0
 14 15  2  0
 14 16  1  0
 16 17  1  0
 17 18  1  0
 18 19  2  0
 19 20  1  0
 20 21  1  0
 21 22  2  0
 13 23  1  0
 23  9  1  0
 22 18  1  0
  1 24  1  0
  1 25  1  0
  1 26  1  0
  2 27  1  0
  2 28  1  0
  3 29  1  0
  4 30  1  0
  4 31  1  0
  5 32  1  0
  5 33  1  0
  5 34  1  0
  8 35  1  0
  9 36  1  0
 10 37  1  0
 10 38  1  0
 11 39  1  0
 11 40  1  0
 12 41  1  0
 12 42  1  0
 16 43  1  0
 16 44  1  0
 17 45  1  0
 17 46  1  0
 19 47  1  0
 20 48  1  0
 21 49  1  0
 23 50  1  0
 23 51  1  0
M  END
>  <Energy>  (49) 
270.11279193741575

>  <compound_id>  (49) 
76310

>  <target_id>  (49) 
1

>  <reference_id>  (49) 
27

>  <inspiration_ids>  (49) 
[27, 35]

>  <energy_score>  (49) 
228.54380640355407

>  <distance_score>  (49) 
12.629259907458794

>  <path>  (49) 
/opt/xchem-fragalysis-2/maxwin/BulkDock/SCRATCH/511022/C76310-P27/C76310-P27.minimised.mol

>  <scratch_subdir>  (49) 
/opt/xchem-fragalysis-2/maxwin/BulkDock/SCRATCH/511022/C76310-P27

>  <fragmenstein_runtime>  (49) 
52.6991081237793

>  <fragmenstein_outcome>  (49) 
too moved

>  <fragmenstein_mode>  (49) 
expansion

>  <fragmenstein_error>  (49) 


$$$$
C76310-P35
     RDKit          3D

 51 52  0  0  0  0  0  0  0  0999 V2000
   15.4362  -11.0179   18.4963 C   0  0  0  0  0  0  0  0  0  0  0  0
   14.7037  -12.3621   18.5553 C   0  0  0  0  0  0  0  0  0  0  0  0
   13.1772  -12.3340   18.3034 C   0  0  0  0  0  0  0  0  0  0  0  0
   12.4905  -11.6281   19.4930 C   0  0  0  0  0  0  0  0  0  0  0  0
   11.0458  -11.2372   19.2549 C   0  0  0  0  0  0  0  0  0  0  0  0
   12.5619  -13.7726   18.0941 C   0  0  0  0  0  0  0  0  0  0  0  0
   13.0702  -14.7318   18.5963 O   0  0  0  0  0  0  0  0  0  0  0  0
   11.3423  -13.6448   17.3264 N   0  0  0  0  0  0  0  0  0  0  0  0
   10.3919  -14.6658   16.8369 C   0  0  0  0  0  0  0  0  0  0  0  0
    9.0631  -13.9471   16.6676 C   0  0  0  0  0  0  0  0  0  0  0  0
    8.4627  -13.7976   18.0577 C   0  0  0  0  0  0  0  0  0  0  0  0
    8.9487  -14.9413   18.9797 C   0  0  0  0  0  0  0  0  0  0  0  0
    8.7297  -16.2753   18.3276 N   0  0  0  0  0  0  0  0  0  0  0  0
    8.3298  -17.2790   19.3308 C   0  0  0  0  0  0  0  0  0  0  0  0
    8.9997  -18.0305   19.9900 O   0  0  0  0  0  0  0  0  0  0  0  0
    6.7161  -17.2709   19.5353 C   0  0  0  0  0  0  0  0  0  0  0  0
    6.0038  -18.3676   20.6062 C   0  0  0  0  0  0  0  0  0  0  0  0
    4.3168  -19.0621   21.2426 C   0  0  0  0  0  0  0  0  0  0  0  0
    3.3666  -19.2503   22.3740 C   0  0  0  0  0  0  0  0  0  0  0  0
    2.0188  -19.7054   21.6368 N   0  0  0  0  0  0  0  0  0  0  0  0
    2.0451  -19.9464   20.3321 C   0  0  0  0  0  0  0  0  0  0  0  0
    3.2602  -20.2449   20.2451 N   0  0  0  0  0  0  0  0  0  0  0  0
   10.1307  -15.9497   17.7199 C   0  0  0  0  0  0  0  0  0  0  0  0
   16.4771  -11.1644   18.8063 H   0  0  0  0  0  0  0  0  0  0  0  0
   15.4676  -10.6550   17.4721 H   0  0  0  0  0  0  0  0  0  0  0  0
   15.0098  -10.2642   19.1585 H   0  0  0  0  0  0  0  0  0  0  0  0
   15.1694  -13.0318   17.8206 H   0  0  0  0  0  0  0  0  0  0  0  0
   14.8959  -12.8192   19.5348 H   0  0  0  0  0  0  0  0  0  0  0  0
   13.0239  -11.7793   17.3714 H   0  0  0  0  0  0  0  0  0  0  0  0
   13.0534  -10.7447   19.7889 H   0  0  0  0  0  0  0  0  0  0  0  0
   12.5221  -12.2897   20.3694 H   0  0  0  0  0  0  0  0  0  0  0  0
   10.4002  -12.0810   19.5047 H   0  0  0  0  0  0  0  0  0  0  0  0
   10.8681  -10.9644   18.2157 H   0  0  0  0  0  0  0  0  0  0  0  0
   10.7472  -10.4182   19.9153 H   0  0  0  0  0  0  0  0  0  0  0  0
   11.2637  -12.6938   16.9861 H   0  0  0  0  0  0  0  0  0  0  0  0
   10.7872  -14.9756   15.8629 H   0  0  0  0  0  0  0  0  0  0  0  0
    8.3960  -14.5597   16.0479 H   0  0  0  0  0  0  0  0  0  0  0  0
    9.1540  -12.9745   16.1712 H   0  0  0  0  0  0  0  0  0  0  0  0
    8.7087  -12.8286   18.4961 H   0  0  0  0  0  0  0  0  0  0  0  0
    7.3688  -13.8248   17.9745 H   0  0  0  0  0  0  0  0  0  0  0  0
    8.2700  -14.8914   19.8171 H   0  0  0  0  0  0  0  0  0  0  0  0
    9.9102  -14.7671   19.4938 H   0  0  0  0  0  0  0  0  0  0  0  0
    6.5124  -17.3760   18.4951 H   0  0  0  0  0  0  0  0  0  0  0  0
    6.3665  -16.2637   19.6817 H   0  0  0  0  0  0  0  0  0  0  0  0
    6.0874  -17.9253   21.5535 H   0  0  0  0  0  0  0  0  0  0  0  0
    6.6910  -19.2297   20.4879 H   0  0  0  0  0  0  0  0  0  0  0  0
    3.2907  -19.1269   23.4404 H   0  0  0  0  0  0  0  0  0  0  0  0
    1.2372  -19.6599   22.2641 H   0  0  0  0  0  0  0  0  0  0  0  0
    1.3348  -20.0019   19.5137 H   0  0  0  0  0  0  0  0  0  0  0  0
   10.9242  -16.1604   18.4540 H   0  0  0  0  0  0  0  0  0  0  0  0
   10.2403  -16.7950   17.0228 H   0  0  0  0  0  0  0  0  0  0  0  0
  1  2  1  0
  2  3  1  0
  3  4  1  0
  4  5  1  0
  3  6  1  0
  6  7  2  0
  6  8  1  0
  8  9  1  0
  9 10  1  0
 10 11  1  0
 11 12  1  0
 12 13  1  0
 13 14  1  0
 14 15  2  0
 14 16  1  0
 16 17  1  0
 17 18  1  0
 18 19  2  0
 19 20  1  0
 20 21  1  0
 21 22  2  0
 13 23  1  0
 23  9  1  0
 22 18  1  0
  1 24  1  0
  1 25  1  0
  1 26  1  0
  2 27  1  0
  2 28  1  0
  3 29  1  0
  4 30  1  0
  4 31  1  0
  5 32  1  0
  5 33  1  0
  5 34  1  0
  8 35  1  0
  9 36  1  0
 10 37  1  0
 10 38  1  0
 11 39  1  0
 11 40  1  0
 12 41  1  0
 12 42  1  0
 16 43  1  0
 16 44  1  0
 17 45  1  0
 17 46  1  0
 19 47  1  0
 20 48  1  0
 21 49  1  0
 23 50  1  0
 23 51  1  0
M  END
>  <Energy>  (50) 
294.3106899480639

>  <compound_id>  (50) 
76310

>  <target_id>  (50) 
1

>  <reference_id>  (50) 
35

>  <inspiration_ids>  (50) 
[27, 35]

>  <energy_score>  (50) 
252.74170441420654

>  <distance_score>  (50) 
13.948880761286457

>  <path>  (50) 
/opt/xchem-fragalysis-2/maxwin/BulkDock/SCRATCH/511022/C76310-P35/C76310-P35.minimised.mol

>  <scratch_subdir>  (50) 
/opt/xchem-fragalysis-2/maxwin/BulkDock/SCRATCH/511022/C76310-P35

>  <fragmenstein_runtime>  (50) 
42.60048270225525

>  <fragmenstein_outcome>  (50) 
too moved

>  <fragmenstein_mode>  (50) 
expansion

>  <fragmenstein_error>  (50) 


$$$$
C73149-P27
     RDKit          3D

 54 55  0  0  0  0  0  0  0  0999 V2000
    6.2189   -4.5701   24.0165 C   0  0  0  0  0  0  0  0  0  0  0  0
    6.8240   -5.9212   24.3937 C   0  0  0  0  0  0  0  0  0  0  0  0
    5.9478   -7.2137   24.2539 C   0  0  0  0  0  0  0  0  0  0  0  0
    5.4611   -7.5321   22.8034 C   0  0  0  0  0  0  0  0  0  0  0  0
    5.3279   -6.4249   21.7619 C   0  0  0  0  0  0  0  0  0  0  0  0
    6.7751   -8.4680   24.8202 C   0  0  0  0  0  0  0  0  0  0  0  0
    7.9655   -8.3290   24.9146 O   0  0  0  0  0  0  0  0  0  0  0  0
    5.9320   -9.6428   25.0470 N   0  0  0  0  0  0  0  0  0  0  0  0
    6.2937  -11.0726   25.3708 C   0  0  0  0  0  0  0  0  0  0  0  0
    7.7755  -11.3112   25.0227 C   0  0  0  0  0  0  0  0  0  0  0  0
    8.4739  -11.0651   26.3420 C   0  0  0  0  0  0  0  0  0  0  0  0
    7.5838  -11.8344   27.3110 C   0  0  0  0  0  0  0  0  0  0  0  0
    6.0921  -11.6657   26.8637 C   0  0  0  0  0  0  0  0  0  0  0  0
    5.2188  -13.2698   27.2696 C   0  0  0  0  0  0  0  0  0  0  0  0
    3.6697  -14.3151   27.1469 N   0  0  0  0  0  0  0  0  0  0  0  0
    3.3196  -15.9053   27.7702 C   0  0  0  0  0  0  0  0  0  0  0  0
    4.0496  -16.6759   28.3328 O   0  0  0  0  0  0  0  0  0  0  0  0
    1.6514  -16.5606   27.7629 C   0  0  0  0  0  0  0  0  0  0  0  0
    0.2865  -17.7487   27.7356 C   0  0  0  0  0  0  0  0  0  0  0  0
   -0.2781  -19.0703   28.9903 C   0  0  0  0  0  0  0  0  0  0  0  0
    0.0160  -19.7479   30.0596 C   0  0  0  0  0  0  0  0  0  0  0  0
   -0.9340  -20.8394   29.8626 N   0  0  0  0  0  0  0  0  0  0  0  0
   -0.9241  -21.3619   28.6954 C   0  0  0  0  0  0  0  0  0  0  0  0
   -1.0097  -20.2927   28.0283 N   0  0  0  0  0  0  0  0  0  0  0  0
    5.1487   -4.5434   24.2428 H   0  0  0  0  0  0  0  0  0  0  0  0
    6.6950   -3.7739   24.5986 H   0  0  0  0  0  0  0  0  0  0  0  0
    6.3707   -4.3188   22.9658 H   0  0  0  0  0  0  0  0  0  0  0  0
    7.7572   -6.0456   23.8578 H   0  0  0  0  0  0  0  0  0  0  0  0
    7.1098   -5.8536   25.4529 H   0  0  0  0  0  0  0  0  0  0  0  0
    5.0714   -7.0896   24.9033 H   0  0  0  0  0  0  0  0  0  0  0  0
    4.4653   -7.9871   22.9065 H   0  0  0  0  0  0  0  0  0  0  0  0
    6.0605   -8.3379   22.3749 H   0  0  0  0  0  0  0  0  0  0  0  0
    6.2662   -5.9134   21.5702 H   0  0  0  0  0  0  0  0  0  0  0  0
    4.5757   -5.6929   22.0704 H   0  0  0  0  0  0  0  0  0  0  0  0
    4.9894   -6.8531   20.8121 H   0  0  0  0  0  0  0  0  0  0  0  0
    4.9782   -9.4195   24.7923 H   0  0  0  0  0  0  0  0  0  0  0  0
    5.6679  -11.6084   24.6760 H   0  0  0  0  0  0  0  0  0  0  0  0
    7.9297  -12.3546   24.7352 H   0  0  0  0  0  0  0  0  0  0  0  0
    8.1608  -10.6978   24.2049 H   0  0  0  0  0  0  0  0  0  0  0  0
    9.5010  -11.4416   26.3438 H   0  0  0  0  0  0  0  0  0  0  0  0
    8.4965  -10.0078   26.6176 H   0  0  0  0  0  0  0  0  0  0  0  0
    7.8731  -12.8872   27.2391 H   0  0  0  0  0  0  0  0  0  0  0  0
    7.7313  -11.5078   28.3449 H   0  0  0  0  0  0  0  0  0  0  0  0
    5.6247  -10.8889   27.4861 H   0  0  0  0  0  0  0  0  0  0  0  0
    5.2298  -13.3371   26.1735 H   0  0  0  0  0  0  0  0  0  0  0  0
    4.9175  -12.7982   28.1946 H   0  0  0  0  0  0  0  0  0  0  0  0
    2.8201  -13.8851   26.7999 H   0  0  0  0  0  0  0  0  0  0  0  0
    2.1700  -17.3636   27.2207 H   0  0  0  0  0  0  0  0  0  0  0  0
    1.4564  -16.5067   28.8282 H   0  0  0  0  0  0  0  0  0  0  0  0
   -0.7247  -17.3337   27.5319 H   0  0  0  0  0  0  0  0  0  0  0  0
    0.2240  -18.2432   26.7621 H   0  0  0  0  0  0  0  0  0  0  0  0
    0.6860  -19.5372   30.8510 H   0  0  0  0  0  0  0  0  0  0  0  0
   -1.6971  -21.0870   30.4818 H   0  0  0  0  0  0  0  0  0  0  0  0
   -1.1015  -22.3759   28.4401 H   0  0  0  0  0  0  0  0  0  0  0  0
  1  2  1  0
  2  3  1  0
  3  4  1  0
  4  5  1  0
  3  6  1  0
  6  7  2  0
  6  8  1  0
  8  9  1  0
  9 10  1  0
 10 11  1  0
 11 12  1  0
 12 13  1  0
 13 14  1  0
 14 15  1  0
 15 16  1  0
 16 17  2  0
 16 18  1  0
 18 19  1  0
 19 20  1  0
 20 21  2  0
 21 22  1  0
 22 23  1  0
 23 24  2  0
 13  9  1  0
 24 20  1  0
  1 25  1  0
  1 26  1  0
  1 27  1  0
  2 28  1  0
  2 29  1  0
  3 30  1  0
  4 31  1  0
  4 32  1  0
  5 33  1  0
  5 34  1  0
  5 35  1  0
  8 36  1  0
  9 37  1  0
 10 38  1  0
 10 39  1  0
 11 40  1  0
 11 41  1  0
 12 42  1  0
 12 43  1  0
 13 44  1  0
 14 45  1  0
 14 46  1  0
 15 47  1  0
 18 48  1  0
 18 49  1  0
 19 50  1  0
 19 51  1  0
 21 52  1  0
 22 53  1  0
 23 54  1  0
M  END
>  <Energy>  (51) 
440.40503641959475

>  <compound_id>  (51) 
73149

>  <target_id>  (51) 
1

>  <reference_id>  (51) 
27

>  <inspiration_ids>  (51) 
[27, 35]

>  <energy_score>  (51) 
418.1216876284875

>  <distance_score>  (51) 
12.166080334440698

>  <path>  (51) 
/opt/xchem-fragalysis-2/maxwin/BulkDock/SCRATCH/511022/C73149-P27/C73149-P27.minimised.mol

>  <scratch_subdir>  (51) 
/opt/xchem-fragalysis-2/maxwin/BulkDock/SCRATCH/511022/C73149-P27

>  <fragmenstein_runtime>  (51) 
48.85765290260315

>  <fragmenstein_outcome>  (51) 
too moved

>  <fragmenstein_mode>  (51) 
expansion

>  <fragmenstein_error>  (51) 


$$$$
C73149-P35
     RDKit          3D

 54 55  0  0  0  0  0  0  0  0999 V2000
   13.6903   -3.6116   23.6105 C   0  0  0  0  0  0  0  0  0  0  0  0
   14.0555   -5.0686   23.9213 C   0  0  0  0  0  0  0  0  0  0  0  0
   13.0710   -6.1429   23.3742 C   0  0  0  0  0  0  0  0  0  0  0  0
   13.3410   -6.3888   21.8584 C   0  0  0  0  0  0  0  0  0  0  0  0
   13.2127   -5.1659   20.9413 C   0  0  0  0  0  0  0  0  0  0  0  0
   13.1419   -7.5129   24.1881 C   0  0  0  0  0  0  0  0  0  0  0  0
   14.1841   -7.7351   24.7428 O   0  0  0  0  0  0  0  0  0  0  0  0
   11.9254   -8.3394   24.0647 N   0  0  0  0  0  0  0  0  0  0  0  0
   11.6506   -9.7320   24.5011 C   0  0  0  0  0  0  0  0  0  0  0  0
   12.5473  -10.5973   23.5813 C   0  0  0  0  0  0  0  0  0  0  0  0
   11.6803  -10.8021   22.3442 C   0  0  0  0  0  0  0  0  0  0  0  0
   10.2512  -10.9639   22.8762 C   0  0  0  0  0  0  0  0  0  0  0  0
   10.2898  -10.5632   24.3626 C   0  0  0  0  0  0  0  0  0  0  0  0
    8.9005  -10.1960   25.0091 C   0  0  0  0  0  0  0  0  0  0  0  0
    7.9877  -11.3265   25.4485 N   0  0  0  0  0  0  0  0  0  0  0  0
    6.5213  -11.5321   25.2481 C   0  0  0  0  0  0  0  0  0  0  0  0
    5.7238  -10.8912   24.6210 O   0  0  0  0  0  0  0  0  0  0  0  0
    5.9685  -12.8158   26.1613 C   0  0  0  0  0  0  0  0  0  0  0  0
    4.5670  -14.0482   25.8118 C   0  0  0  0  0  0  0  0  0  0  0  0
    3.8060  -15.0115   27.1389 C   0  0  0  0  0  0  0  0  0  0  0  0
    3.6059  -16.3816   26.9437 C   0  0  0  0  0  0  0  0  0  0  0  0
    2.7412  -16.9201   27.7275 N   0  0  0  0  0  0  0  0  0  0  0  0
    1.8389  -16.0164   27.9491 C   0  0  0  0  0  0  0  0  0  0  0  0
    2.4664  -14.8488   27.7439 N   0  0  0  0  0  0  0  0  0  0  0  0
   12.6219   -3.4318   23.7623 H   0  0  0  0  0  0  0  0  0  0  0  0
   14.2385   -2.9486   24.2891 H   0  0  0  0  0  0  0  0  0  0  0  0
   13.9651   -3.3105   22.6003 H   0  0  0  0  0  0  0  0  0  0  0  0
   15.0771   -5.2735   23.5792 H   0  0  0  0  0  0  0  0  0  0  0  0
   14.0809   -5.1600   25.0153 H   0  0  0  0  0  0  0  0  0  0  0  0
   12.0783   -5.7414   23.5671 H   0  0  0  0  0  0  0  0  0  0  0  0
   12.6686   -7.1793   21.5105 H   0  0  0  0  0  0  0  0  0  0  0  0
   14.3481   -6.8092   21.7378 H   0  0  0  0  0  0  0  0  0  0  0  0
   14.1480   -4.5990   20.9307 H   0  0  0  0  0  0  0  0  0  0  0  0
   12.3990   -4.5076   21.2519 H   0  0  0  0  0  0  0  0  0  0  0  0
   13.0217   -5.4519   19.9074 H   0  0  0  0  0  0  0  0  0  0  0  0
   11.2119   -7.8068   23.6004 H   0  0  0  0  0  0  0  0  0  0  0  0
   12.0150   -9.7959   25.5327 H   0  0  0  0  0  0  0  0  0  0  0  0
   13.5113  -10.1448   23.3289 H   0  0  0  0  0  0  0  0  0  0  0  0
   12.7520  -11.5651   24.0565 H   0  0  0  0  0  0  0  0  0  0  0  0
   12.0000  -11.6697   21.7594 H   0  0  0  0  0  0  0  0  0  0  0  0
   11.7329   -9.9226   21.6930 H   0  0  0  0  0  0  0  0  0  0  0  0
    9.9245  -12.0064   22.7813 H   0  0  0  0  0  0  0  0  0  0  0  0
    9.5566  -10.3650   22.2881 H   0  0  0  0  0  0  0  0  0  0  0  0
   10.5375  -11.5000   24.8923 H   0  0  0  0  0  0  0  0  0  0  0  0
    8.3017   -9.5710   24.3473 H   0  0  0  0  0  0  0  0  0  0  0  0
    9.0906   -9.6256   25.9246 H   0  0  0  0  0  0  0  0  0  0  0  0
    8.3338  -12.0146   26.1073 H   0  0  0  0  0  0  0  0  0  0  0  0
    6.9069  -13.3534   26.3265 H   0  0  0  0  0  0  0  0  0  0  0  0
    5.7519  -12.3785   27.1475 H   0  0  0  0  0  0  0  0  0  0  0  0
    5.0150  -14.8398   25.2113 H   0  0  0  0  0  0  0  0  0  0  0  0
    3.8266  -13.7692   25.0578 H   0  0  0  0  0  0  0  0  0  0  0  0
    3.5536  -16.9561   26.0240 H   0  0  0  0  0  0  0  0  0  0  0  0
    3.0695  -17.5087   28.4628 H   0  0  0  0  0  0  0  0  0  0  0  0
    1.0015  -16.2970   28.5493 H   0  0  0  0  0  0  0  0  0  0  0  0
  1  2  1  0
  2  3  1  0
  3  4  1  0
  4  5  1  0
  3  6  1  0
  6  7  2  0
  6  8  1  0
  8  9  1  0
  9 10  1  0
 10 11  1  0
 11 12  1  0
 12 13  1  0
 13 14  1  0
 14 15  1  0
 15 16  1  0
 16 17  2  0
 16 18  1  0
 18 19  1  0
 19 20  1  0
 20 21  2  0
 21 22  1  0
 22 23  1  0
 23 24  2  0
 13  9  1  0
 24 20  1  0
  1 25  1  0
  1 26  1  0
  1 27  1  0
  2 28  1  0
  2 29  1  0
  3 30  1  0
  4 31  1  0
  4 32  1  0
  5 33  1  0
  5 34  1  0
  5 35  1  0
  8 36  1  0
  9 37  1  0
 10 38  1  0
 10 39  1  0
 11 40  1  0
 11 41  1  0
 12 42  1  0
 12 43  1  0
 13 44  1  0
 14 45  1  0
 14 46  1  0
 15 47  1  0
 18 48  1  0
 18 49  1  0
 19 50  1  0
 19 51  1  0
 21 52  1  0
 22 53  1  0
 23 54  1  0
M  END
>  <Energy>  (52) 
164.42350902504441

>  <compound_id>  (52) 
73149

>  <target_id>  (52) 
1

>  <reference_id>  (52) 
35

>  <inspiration_ids>  (52) 
[27, 35]

>  <energy_score>  (52) 
142.1401602339581

>  <distance_score>  (52) 
11.960273527156895

>  <path>  (52) 
/opt/xchem-fragalysis-2/maxwin/BulkDock/SCRATCH/511022/C73149-P35/C73149-P35.minimised.mol

>  <scratch_subdir>  (52) 
/opt/xchem-fragalysis-2/maxwin/BulkDock/SCRATCH/511022/C73149-P35

>  <fragmenstein_runtime>  (52) 
47.45868492126465

>  <fragmenstein_outcome>  (52) 
too moved

>  <fragmenstein_mode>  (52) 
expansion

>  <fragmenstein_error>  (52) 


$$$$
C73145-P27
     RDKit          3D

 51 52  0  0  0  0  0  0  0  0999 V2000
    7.0013   -9.1493   13.8193 C   0  0  0  0  0  0  0  0  0  0  0  0
    6.5942  -10.1945   14.8524 C   0  0  0  0  0  0  0  0  0  0  0  0
    7.6494  -11.2928   15.1612 C   0  0  0  0  0  0  0  0  0  0  0  0
    8.9415  -10.7383   15.7861 C   0  0  0  0  0  0  0  0  0  0  0  0
   10.1636  -11.6047   15.5511 C   0  0  0  0  0  0  0  0  0  0  0  0
    6.9874  -12.4817   15.9596 C   0  0  0  0  0  0  0  0  0  0  0  0
    7.0300  -13.5677   15.4521 O   0  0  0  0  0  0  0  0  0  0  0  0
    6.3351  -12.0307   17.1721 N   0  0  0  0  0  0  0  0  0  0  0  0
    5.4339  -12.7419   18.1153 C   0  0  0  0  0  0  0  0  0  0  0  0
    4.6233  -11.8088   18.9725 C   0  0  0  0  0  0  0  0  0  0  0  0
    4.7714  -12.7927   20.3827 C   0  0  0  0  0  0  0  0  0  0  0  0
    3.4853  -13.2758   21.7955 C   0  0  0  0  0  0  0  0  0  0  0  0
    2.7968  -14.8187   22.8685 N   0  0  0  0  0  0  0  0  0  0  0  0
    3.6289  -16.3717   23.5575 C   0  0  0  0  0  0  0  0  0  0  0  0
    4.7938  -16.5676   23.5093 O   0  0  0  0  0  0  0  0  0  0  0  0
    2.5906  -18.1476   24.3501 C   0  0  0  0  0  0  0  0  0  0  0  0
    0.8989  -19.5496   24.0214 C   0  0  0  0  0  0  0  0  0  0  0  0
   -0.2837  -21.2422   23.6039 C   0  0  0  0  0  0  0  0  0  0  0  0
   -0.5747  -22.6798   23.7135 C   0  0  0  0  0  0  0  0  0  0  0  0
   -1.8674  -23.0181   23.3250 N   0  0  0  0  0  0  0  0  0  0  0  0
   -2.6205  -21.9040   23.2538 C   0  0  0  0  0  0  0  0  0  0  0  0
   -1.8604  -20.8538   23.4015 N   0  0  0  0  0  0  0  0  0  0  0  0
    5.9985  -13.3786   19.3700 C   0  0  0  0  0  0  0  0  0  0  0  0
    7.8074   -8.5136   14.1679 H   0  0  0  0  0  0  0  0  0  0  0  0
    7.3119   -9.6322   12.8876 H   0  0  0  0  0  0  0  0  0  0  0  0
    6.1443   -8.5085   13.5884 H   0  0  0  0  0  0  0  0  0  0  0  0
    6.2439   -9.7011   15.7615 H   0  0  0  0  0  0  0  0  0  0  0  0
    5.7025  -10.7018   14.4575 H   0  0  0  0  0  0  0  0  0  0  0  0
    7.9195  -11.7226   14.1848 H   0  0  0  0  0  0  0  0  0  0  0  0
    8.8128  -10.6168   16.8653 H   0  0  0  0  0  0  0  0  0  0  0  0
    9.1934   -9.7801   15.3332 H   0  0  0  0  0  0  0  0  0  0  0  0
   10.0295  -12.5990   15.9884 H   0  0  0  0  0  0  0  0  0  0  0  0
   10.3606  -11.7253   14.4810 H   0  0  0  0  0  0  0  0  0  0  0  0
   11.0478  -11.1496   16.0083 H   0  0  0  0  0  0  0  0  0  0  0  0
    6.5799  -11.0650   17.3378 H   0  0  0  0  0  0  0  0  0  0  0  0
    4.7897  -13.4367   17.5592 H   0  0  0  0  0  0  0  0  0  0  0  0
    3.6696  -11.6168   18.4774 H   0  0  0  0  0  0  0  0  0  0  0  0
    5.0978  -10.8237   19.1125 H   0  0  0  0  0  0  0  0  0  0  0  0
    5.2255  -11.9652   20.9404 H   0  0  0  0  0  0  0  0  0  0  0  0
    3.3313  -12.4264   22.4656 H   0  0  0  0  0  0  0  0  0  0  0  0
    2.9280  -13.6104   20.9518 H   0  0  0  0  0  0  0  0  0  0  0  0
    1.8024  -14.8241   23.1109 H   0  0  0  0  0  0  0  0  0  0  0  0
    2.8150  -18.0727   25.4232 H   0  0  0  0  0  0  0  0  0  0  0  0
    3.2494  -18.9713   24.0831 H   0  0  0  0  0  0  0  0  0  0  0  0
    1.3311  -20.0567   23.0014 H   0  0  0  0  0  0  0  0  0  0  0  0
    0.0856  -19.0919   23.4423 H   0  0  0  0  0  0  0  0  0  0  0  0
   -0.0747  -23.5026   24.2082 H   0  0  0  0  0  0  0  0  0  0  0  0
   -2.2326  -23.9577   23.3087 H   0  0  0  0  0  0  0  0  0  0  0  0
   -3.6887  -21.9007   23.0895 H   0  0  0  0  0  0  0  0  0  0  0  0
    6.9942  -13.0076   19.6436 H   0  0  0  0  0  0  0  0  0  0  0  0
    6.0450  -14.4453   19.1245 H   0  0  0  0  0  0  0  0  0  0  0  0
  1  2  1  0
  2  3  1  0
  3  4  1  0
  4  5  1  0
  3  6  1  0
  6  7  2  0
  6  8  1  0
  8  9  1  0
  9 10  1  0
 10 11  1  0
 11 12  1  0
 12 13  1  0
 13 14  1  0
 14 15  2  0
 14 16  1  0
 16 17  1  0
 17 18  1  0
 18 19  2  0
 19 20  1  0
 20 21  1  0
 21 22  2  0
 11 23  1  0
 23  9  1  0
 22 18  1  0
  1 24  1  0
  1 25  1  0
  1 26  1  0
  2 27  1  0
  2 28  1  0
  3 29  1  0
  4 30  1  0
  4 31  1  0
  5 32  1  0
  5 33  1  0
  5 34  1  0
  8 35  1  0
  9 36  1  0
 10 37  1  0
 10 38  1  0
 11 39  1  0
 12 40  1  0
 12 41  1  0
 13 42  1  0
 16 43  1  0
 16 44  1  0
 17 45  1  0
 17 46  1  0
 19 47  1  0
 20 48  1  0
 21 49  1  0
 23 50  1  0
 23 51  1  0
M  END
>  <Energy>  (53) 
814.70444816190547

>  <compound_id>  (53) 
73145

>  <target_id>  (53) 
1

>  <reference_id>  (53) 
27

>  <inspiration_ids>  (53) 
[27, 35]

>  <energy_score>  (53) 
793.8773024702652

>  <distance_score>  (53) 
12.318168261097712

>  <path>  (53) 
/opt/xchem-fragalysis-2/maxwin/BulkDock/SCRATCH/511022/C73145-P27/C73145-P27.minimised.mol

>  <scratch_subdir>  (53) 
/opt/xchem-fragalysis-2/maxwin/BulkDock/SCRATCH/511022/C73145-P27

>  <fragmenstein_runtime>  (53) 
57.61393928527832

>  <fragmenstein_outcome>  (53) 
too moved

>  <fragmenstein_mode>  (53) 
expansion

>  <fragmenstein_error>  (53) 


$$$$
C73145-P35
     RDKit          3D

 51 52  0  0  0  0  0  0  0  0999 V2000
   11.4305   -5.9255   24.6482 C   0  0  0  0  0  0  0  0  0  0  0  0
   10.6893   -7.2664   24.5639 C   0  0  0  0  0  0  0  0  0  0  0  0
   11.3611   -8.3407   23.6816 C   0  0  0  0  0  0  0  0  0  0  0  0
   11.3944   -7.8266   22.2053 C   0  0  0  0  0  0  0  0  0  0  0  0
   12.6583   -7.0387   21.8529 C   0  0  0  0  0  0  0  0  0  0  0  0
   10.8817   -9.8804   23.7394 C   0  0  0  0  0  0  0  0  0  0  0  0
   11.4333  -10.6086   22.9575 O   0  0  0  0  0  0  0  0  0  0  0  0
    9.9019  -10.1696   24.7701 N   0  0  0  0  0  0  0  0  0  0  0  0
    9.3401  -11.4709   25.2554 C   0  0  0  0  0  0  0  0  0  0  0  0
   10.1111  -12.7734   24.9794 C   0  0  0  0  0  0  0  0  0  0  0  0
    8.6703  -13.5781   24.8730 C   0  0  0  0  0  0  0  0  0  0  0  0
    8.3810  -15.3129   23.9514 C   0  0  0  0  0  0  0  0  0  0  0  0
    6.6462  -16.4333   24.0437 N   0  0  0  0  0  0  0  0  0  0  0  0
    4.9304  -15.9724   24.4687 C   0  0  0  0  0  0  0  0  0  0  0  0
    4.4991  -14.8448   24.6658 O   0  0  0  0  0  0  0  0  0  0  0  0
    3.4922  -17.4708   24.9410 C   0  0  0  0  0  0  0  0  0  0  0  0
    2.2359  -17.5808   26.5678 C   0  0  0  0  0  0  0  0  0  0  0  0
    0.2160  -17.9645   26.7464 C   0  0  0  0  0  0  0  0  0  0  0  0
   -0.8870  -18.8935   26.7320 C   0  0  0  0  0  0  0  0  0  0  0  0
   -2.0297  -18.4537   26.2355 N   0  0  0  0  0  0  0  0  0  0  0  0
   -2.0888  -17.3296   26.8727 C   0  0  0  0  0  0  0  0  0  0  0  0
   -0.8293  -17.1643   27.2460 N   0  0  0  0  0  0  0  0  0  0  0  0
    8.1147  -12.1138   24.5680 C   0  0  0  0  0  0  0  0  0  0  0  0
   11.5050   -5.4130   23.6936 H   0  0  0  0  0  0  0  0  0  0  0  0
   12.4423   -6.0732   25.0400 H   0  0  0  0  0  0  0  0  0  0  0  0
   10.9032   -5.2584   25.3385 H   0  0  0  0  0  0  0  0  0  0  0  0
   10.6243   -7.6367   25.5934 H   0  0  0  0  0  0  0  0  0  0  0  0
    9.6585   -7.0984   24.2298 H   0  0  0  0  0  0  0  0  0  0  0  0
   12.4011   -8.4196   24.0345 H   0  0  0  0  0  0  0  0  0  0  0  0
   11.2982   -8.6638   21.5092 H   0  0  0  0  0  0  0  0  0  0  0  0
   10.5115   -7.2066   22.0194 H   0  0  0  0  0  0  0  0  0  0  0  0
   12.4733   -6.3607   21.0170 H   0  0  0  0  0  0  0  0  0  0  0  0
   13.0402   -6.4363   22.6776 H   0  0  0  0  0  0  0  0  0  0  0  0
   13.4648   -7.7289   21.5853 H   0  0  0  0  0  0  0  0  0  0  0  0
    9.7171   -9.3255   25.2953 H   0  0  0  0  0  0  0  0  0  0  0  0
    9.1504  -11.3584   26.3339 H   0  0  0  0  0  0  0  0  0  0  0  0
   10.7663  -12.9452   25.8331 H   0  0  0  0  0  0  0  0  0  0  0  0
   10.7848  -12.8075   24.1257 H   0  0  0  0  0  0  0  0  0  0  0  0
    8.2182  -13.7200   25.8694 H   0  0  0  0  0  0  0  0  0  0  0  0
    8.4349  -15.5007   24.9922 H   0  0  0  0  0  0  0  0  0  0  0  0
    8.7004  -14.6156   23.2110 H   0  0  0  0  0  0  0  0  0  0  0  0
    6.6947  -17.4108   23.8511 H   0  0  0  0  0  0  0  0  0  0  0  0
    3.8749  -18.4299   25.3096 H   0  0  0  0  0  0  0  0  0  0  0  0
    2.9825  -17.7954   24.0812 H   0  0  0  0  0  0  0  0  0  0  0  0
    2.8326  -18.3910   26.8669 H   0  0  0  0  0  0  0  0  0  0  0  0
    2.4253  -16.7775   27.2930 H   0  0  0  0  0  0  0  0  0  0  0  0
   -1.0380  -19.9067   27.0736 H   0  0  0  0  0  0  0  0  0  0  0  0
   -2.7954  -19.0391   25.9287 H   0  0  0  0  0  0  0  0  0  0  0  0
   -2.9012  -16.6389   27.0695 H   0  0  0  0  0  0  0  0  0  0  0  0
    7.9641  -11.9296   23.5268 H   0  0  0  0  0  0  0  0  0  0  0  0
    7.1674  -11.8730   25.0652 H   0  0  0  0  0  0  0  0  0  0  0  0
  1  2  1  0
  2  3  1  0
  3  4  1  0
  4  5  1  0
  3  6  1  0
  6  7  2  0
  6  8  1  0
  8  9  1  0
  9 10  1  0
 10 11  1  0
 11 12  1  0
 12 13  1  0
 13 14  1  0
 14 15  2  0
 14 16  1  0
 16 17  1  0
 17 18  1  0
 18 19  2  0
 19 20  1  0
 20 21  1  0
 21 22  2  0
 11 23  1  0
 23  9  1  0
 22 18  1  0
  1 24  1  0
  1 25  1  0
  1 26  1  0
  2 27  1  0
  2 28  1  0
  3 29  1  0
  4 30  1  0
  4 31  1  0
  5 32  1  0
  5 33  1  0
  5 34  1  0
  8 35  1  0
  9 36  1  0
 10 37  1  0
 10 38  1  0
 11 39  1  0
 12 40  1  0
 12 41  1  0
 13 42  1  0
 16 43  1  0
 16 44  1  0
 17 45  1  0
 17 46  1  0
 19 47  1  0
 20 48  1  0
 21 49  1  0
 23 50  1  0
 23 51  1  0
M  END
>  <Energy>  (54) 
663.01860179305822

>  <compound_id>  (54) 
73145

>  <target_id>  (54) 
1

>  <reference_id>  (54) 
35

>  <inspiration_ids>  (54) 
[27, 35]

>  <energy_score>  (54) 
642.1914561014225

>  <distance_score>  (54) 
11.753661296574142

>  <path>  (54) 
/opt/xchem-fragalysis-2/maxwin/BulkDock/SCRATCH/511022/C73145-P35/C73145-P35.minimised.mol

>  <scratch_subdir>  (54) 
/opt/xchem-fragalysis-2/maxwin/BulkDock/SCRATCH/511022/C73145-P35

>  <fragmenstein_runtime>  (54) 
46.64244604110718

>  <fragmenstein_outcome>  (54) 
too moved

>  <fragmenstein_mode>  (54) 
expansion

>  <fragmenstein_error>  (54) 


$$$$
C23866-P27
     RDKit          3D

 48 49  0  0  0  0  0  0  0  0999 V2000
    8.8658  -11.3119   13.8366 C   0  0  0  0  0  0  0  0  0  0  0  0
    8.1759  -10.3389   14.7646 C   0  0  0  0  0  0  0  0  0  0  0  0
    6.9186   -9.6160   14.2285 C   0  0  0  0  0  0  0  0  0  0  0  0
    6.4318   -9.8881   12.8042 C   0  0  0  0  0  0  0  0  0  0  0  0
    7.0571   -8.9743   11.7497 C   0  0  0  0  0  0  0  0  0  0  0  0
    5.7048   -9.5051   15.2080 C   0  0  0  0  0  0  0  0  0  0  0  0
    5.2662   -8.3921   15.3223 O   0  0  0  0  0  0  0  0  0  0  0  0
    5.3162  -10.7402   15.8479 N   0  0  0  0  0  0  0  0  0  0  0  0
    4.3287  -11.0075   16.9102 C   0  0  0  0  0  0  0  0  0  0  0  0
    4.7532  -10.1987   18.1463 C   0  0  0  0  0  0  0  0  0  0  0  0
    5.6930  -11.0381   18.9670 C   0  0  0  0  0  0  0  0  0  0  0  0
    4.8907  -12.2459   19.4030 C   0  0  0  0  0  0  0  0  0  0  0  0
    4.1193  -13.0763   18.1294 C   0  0  0  0  0  0  0  0  0  0  0  0
    2.3836  -12.7081   17.7014 N   0  0  0  0  0  0  0  0  0  0  0  0
    1.6057  -13.0089   18.8453 C   0  0  0  0  0  0  0  0  0  0  0  0
    1.3798  -12.1309   19.6714 O   0  0  0  0  0  0  0  0  0  0  0  0
    0.9510  -14.3250   19.0286 C   0  0  0  0  0  0  0  0  0  0  0  0
   -0.1569  -14.5790   19.8518 C   0  0  0  0  0  0  0  0  0  0  0  0
   -0.5559  -15.8910   19.8623 N   0  0  0  0  0  0  0  0  0  0  0  0
    0.2849  -16.4738   19.0462 C   0  0  0  0  0  0  0  0  0  0  0  0
    1.1793  -15.5761   18.4999 N   0  0  0  0  0  0  0  0  0  0  0  0
    3.8783  -12.7275   17.3082 C   0  0  0  0  0  0  0  0  0  0  0  0
    9.7934  -11.6732   14.2935 H   0  0  0  0  0  0  0  0  0  0  0  0
    9.1232  -10.8793   12.8686 H   0  0  0  0  0  0  0  0  0  0  0  0
    8.2312  -12.1860   13.6572 H   0  0  0  0  0  0  0  0  0  0  0  0
    8.9417   -9.5983   15.0096 H   0  0  0  0  0  0  0  0  0  0  0  0
    7.9567  -10.8535   15.7069 H   0  0  0  0  0  0  0  0  0  0  0  0
    7.2604   -8.5726   14.1839 H   0  0  0  0  0  0  0  0  0  0  0  0
    5.3467   -9.7265   12.7545 H   0  0  0  0  0  0  0  0  0  0  0  0
    6.5779  -10.9365   12.5247 H   0  0  0  0  0  0  0  0  0  0  0  0
    8.0921   -9.2480   11.5437 H   0  0  0  0  0  0  0  0  0  0  0  0
    7.0061   -7.9224   12.0380 H   0  0  0  0  0  0  0  0  0  0  0  0
    6.5116   -9.0825   10.8057 H   0  0  0  0  0  0  0  0  0  0  0  0
    5.8526  -11.5014   15.4487 H   0  0  0  0  0  0  0  0  0  0  0  0
    3.4028  -10.5439   16.5379 H   0  0  0  0  0  0  0  0  0  0  0  0
    3.8617   -9.9535   18.7383 H   0  0  0  0  0  0  0  0  0  0  0  0
    5.2204   -9.2440   17.8860 H   0  0  0  0  0  0  0  0  0  0  0  0
    6.5696  -11.3425   18.3846 H   0  0  0  0  0  0  0  0  0  0  0  0
    6.0487  -10.4847   19.8423 H   0  0  0  0  0  0  0  0  0  0  0  0
    4.1283  -11.9577   20.1386 H   0  0  0  0  0  0  0  0  0  0  0  0
    5.5683  -12.9622   19.8846 H   0  0  0  0  0  0  0  0  0  0  0  0
    3.6868  -13.7205   19.0078 H   0  0  0  0  0  0  0  0  0  0  0  0
    4.6420  -14.1936   17.9872 H   0  0  0  0  0  0  0  0  0  0  0  0
   -0.6754  -13.8343   20.4386 H   0  0  0  0  0  0  0  0  0  0  0  0
    0.3042  -17.5272   18.7993 H   0  0  0  0  0  0  0  0  0  0  0  0
    1.8922  -15.8070   17.8252 H   0  0  0  0  0  0  0  0  0  0  0  0
    4.3968  -13.4404   16.4114 H   0  0  0  0  0  0  0  0  0  0  0  0
    3.3411  -12.6316   16.2714 H   0  0  0  0  0  0  0  0  0  0  0  0
  1  2  1  0
  2  3  1  0
  3  4  1  0
  4  5  1  0
  3  6  1  0
  6  7  2  0
  6  8  1  0
  8  9  1  0
  9 10  1  0
 10 11  1  0
 11 12  1  0
 12 13  1  0
 13 14  1  0
 14 15  1  0
 15 16  2  0
 15 17  1  0
 17 18  2  0
 18 19  1  0
 19 20  2  0
 20 21  1  0
 14 22  1  0
 22  9  1  0
 21 17  1  0
  1 23  1  0
  1 24  1  0
  1 25  1  0
  2 26  1  0
  2 27  1  0
  3 28  1  0
  4 29  1  0
  4 30  1  0
  5 31  1  0
  5 32  1  0
  5 33  1  0
  8 34  1  0
  9 35  1  0
 10 36  1  0
 10 37  1  0
 11 38  1  0
 11 39  1  0
 12 40  1  0
 12 41  1  0
 13 42  1  0
 13 43  1  0
 18 44  1  0
 20 45  1  0
 21 46  1  0
 22 47  1  0
 22 48  1  0
M  END
>  <Energy>  (55) 
568.6049708107663

>  <compound_id>  (55) 
23866

>  <target_id>  (55) 
1

>  <reference_id>  (55) 
27

>  <inspiration_ids>  (55) 
[27, 35]

>  <energy_score>  (55) 
524.562540662752

>  <distance_score>  (55) 
14.701759390227915

>  <path>  (55) 
/opt/xchem-fragalysis-2/maxwin/BulkDock/SCRATCH/511022/C23866-P27/C23866-P27.minimised.mol

>  <scratch_subdir>  (55) 
/opt/xchem-fragalysis-2/maxwin/BulkDock/SCRATCH/511022/C23866-P27

>  <fragmenstein_runtime>  (55) 
35.478681325912476

>  <fragmenstein_outcome>  (55) 
too moved

>  <fragmenstein_mode>  (55) 
expansion

>  <fragmenstein_error>  (55) 


$$$$
C23866-P35
     RDKit          3D

 48 49  0  0  0  0  0  0  0  0999 V2000
    5.4046   -5.8697   20.0827 C   0  0  0  0  0  0  0  0  0  0  0  0
    5.3755   -6.7222   18.8189 C   0  0  0  0  0  0  0  0  0  0  0  0
    4.7485   -8.1576   18.9813 C   0  0  0  0  0  0  0  0  0  0  0  0
    5.4576   -8.9502   20.0913 C   0  0  0  0  0  0  0  0  0  0  0  0
    6.9172   -9.2726   19.8487 C   0  0  0  0  0  0  0  0  0  0  0  0
    4.7351   -8.8978   17.5949 C   0  0  0  0  0  0  0  0  0  0  0  0
    5.1237   -8.2602   16.6562 O   0  0  0  0  0  0  0  0  0  0  0  0
    4.3362  -10.2859   17.6917 N   0  0  0  0  0  0  0  0  0  0  0  0
    4.3735  -11.3648   16.7035 C   0  0  0  0  0  0  0  0  0  0  0  0
    5.7762  -11.4297   16.0521 C   0  0  0  0  0  0  0  0  0  0  0  0
    6.8042  -12.0000   17.0211 C   0  0  0  0  0  0  0  0  0  0  0  0
    6.1124  -12.5962   18.2412 C   0  0  0  0  0  0  0  0  0  0  0  0
    4.6150  -13.3999   17.7659 C   0  0  0  0  0  0  0  0  0  0  0  0
    3.7119  -13.5213   18.9586 N   0  0  0  0  0  0  0  0  0  0  0  0
    2.3963  -13.1957   19.2746 C   0  0  0  0  0  0  0  0  0  0  0  0
    2.0708  -12.1137   19.7521 O   0  0  0  0  0  0  0  0  0  0  0  0
    1.4025  -14.2825   19.1085 C   0  0  0  0  0  0  0  0  0  0  0  0
    1.3996  -15.5394   18.5202 C   0  0  0  0  0  0  0  0  0  0  0  0
    0.2815  -16.2869   18.8534 N   0  0  0  0  0  0  0  0  0  0  0  0
   -0.3970  -15.5321   19.6803 C   0  0  0  0  0  0  0  0  0  0  0  0
    0.2086  -14.3183   19.8332 N   0  0  0  0  0  0  0  0  0  0  0  0
    3.9773  -13.0267   17.2271 C   0  0  0  0  0  0  0  0  0  0  0  0
    4.3847   -5.6514   20.4149 H   0  0  0  0  0  0  0  0  0  0  0  0
    5.9140   -4.9230   19.9124 H   0  0  0  0  0  0  0  0  0  0  0  0
    5.9238   -6.3628   20.9062 H   0  0  0  0  0  0  0  0  0  0  0  0
    4.8028   -6.1791   18.0567 H   0  0  0  0  0  0  0  0  0  0  0  0
    6.3905   -6.8055   18.4319 H   0  0  0  0  0  0  0  0  0  0  0  0
    3.6954   -8.0291   19.2649 H   0  0  0  0  0  0  0  0  0  0  0  0
    5.3656   -8.4221   21.0468 H   0  0  0  0  0  0  0  0  0  0  0  0
    4.9324   -9.8960   20.2655 H   0  0  0  0  0  0  0  0  0  0  0  0
    7.0696   -9.7977   18.9099 H   0  0  0  0  0  0  0  0  0  0  0  0
    7.5135   -8.3767   19.8533 H   0  0  0  0  0  0  0  0  0  0  0  0
    7.2934   -9.9167   20.6506 H   0  0  0  0  0  0  0  0  0  0  0  0
    3.9819  -10.4650   18.6287 H   0  0  0  0  0  0  0  0  0  0  0  0
    3.6457  -11.1005   15.9250 H   0  0  0  0  0  0  0  0  0  0  0  0
    5.7158  -12.0892   15.1766 H   0  0  0  0  0  0  0  0  0  0  0  0
    6.1045  -10.4565   15.6743 H   0  0  0  0  0  0  0  0  0  0  0  0
    7.3812  -12.7794   16.5089 H   0  0  0  0  0  0  0  0  0  0  0  0
    7.5271  -11.2379   17.3245 H   0  0  0  0  0  0  0  0  0  0  0  0
    6.7773  -13.3192   18.7335 H   0  0  0  0  0  0  0  0  0  0  0  0
    5.8628  -11.8477   18.9988 H   0  0  0  0  0  0  0  0  0  0  0  0
    5.0601  -14.3849   17.0663 H   0  0  0  0  0  0  0  0  0  0  0  0
    5.0798  -14.2576   18.4185 H   0  0  0  0  0  0  0  0  0  0  0  0
    2.1757  -15.9699   17.9011 H   0  0  0  0  0  0  0  0  0  0  0  0
   -1.3114  -15.8028   20.1873 H   0  0  0  0  0  0  0  0  0  0  0  0
   -0.0356  -13.6114   20.5120 H   0  0  0  0  0  0  0  0  0  0  0  0
    3.5677  -13.7247   16.3157 H   0  0  0  0  0  0  0  0  0  0  0  0
    2.8715  -12.6519   17.1816 H   0  0  0  0  0  0  0  0  0  0  0  0
  1  2  1  0
  2  3  1  0
  3  4  1  0
  4  5  1  0
  3  6  1  0
  6  7  2  0
  6  8  1  0
  8  9  1  0
  9 10  1  0
 10 11  1  0
 11 12  1  0
 12 13  1  0
 13 14  1  0
 14 15  1  0
 15 16  2  0
 15 17  1  0
 17 18  2  0
 18 19  1  0
 19 20  2  0
 20 21  1  0
 14 22  1  0
 22  9  1  0
 21 17  1  0
  1 23  1  0
  1 24  1  0
  1 25  1  0
  2 26  1  0
  2 27  1  0
  3 28  1  0
  4 29  1  0
  4 30  1  0
  5 31  1  0
  5 32  1  0
  5 33  1  0
  8 34  1  0
  9 35  1  0
 10 36  1  0
 10 37  1  0
 11 38  1  0
 11 39  1  0
 12 40  1  0
 12 41  1  0
 13 42  1  0
 13 43  1  0
 18 44  1  0
 20 45  1  0
 21 46  1  0
 22 47  1  0
 22 48  1  0
M  END
>  <Energy>  (56) 
552.33575819125485

>  <compound_id>  (56) 
23866

>  <target_id>  (56) 
1

>  <reference_id>  (56) 
35

>  <inspiration_ids>  (56) 
[27, 35]

>  <energy_score>  (56) 
508.29332804325077

>  <distance_score>  (56) 
14.585035726861339

>  <path>  (56) 
/opt/xchem-fragalysis-2/maxwin/BulkDock/SCRATCH/511022/C23866-P35/C23866-P35.minimised.mol

>  <scratch_subdir>  (56) 
/opt/xchem-fragalysis-2/maxwin/BulkDock/SCRATCH/511022/C23866-P35

>  <fragmenstein_runtime>  (56) 
21.415016651153564

>  <fragmenstein_outcome>  (56) 
too moved

>  <fragmenstein_mode>  (56) 
expansion

>  <fragmenstein_error>  (56) 


$$$$
C73145-P27
     RDKit          3D

 51 52  0  0  0  0  0  0  0  0999 V2000
    7.0013   -9.1493   13.8193 C   0  0  0  0  0  0  0  0  0  0  0  0
    6.5942  -10.1945   14.8524 C   0  0  0  0  0  0  0  0  0  0  0  0
    7.6494  -11.2928   15.1612 C   0  0  0  0  0  0  0  0  0  0  0  0
    8.9415  -10.7383   15.7861 C   0  0  0  0  0  0  0  0  0  0  0  0
   10.1636  -11.6047   15.5511 C   0  0  0  0  0  0  0  0  0  0  0  0
    6.9874  -12.4817   15.9596 C   0  0  0  0  0  0  0  0  0  0  0  0
    7.0300  -13.5677   15.4521 O   0  0  0  0  0  0  0  0  0  0  0  0
    6.3351  -12.0307   17.1721 N   0  0  0  0  0  0  0  0  0  0  0  0
    5.4339  -12.7419   18.1153 C   0  0  0  0  0  0  0  0  0  0  0  0
    4.6233  -11.8088   18.9725 C   0  0  0  0  0  0  0  0  0  0  0  0
    4.7714  -12.7927   20.3827 C   0  0  0  0  0  0  0  0  0  0  0  0
    3.4853  -13.2758   21.7955 C   0  0  0  0  0  0  0  0  0  0  0  0
    2.7968  -14.8187   22.8685 N   0  0  0  0  0  0  0  0  0  0  0  0
    3.6289  -16.3717   23.5575 C   0  0  0  0  0  0  0  0  0  0  0  0
    4.7938  -16.5676   23.5093 O   0  0  0  0  0  0  0  0  0  0  0  0
    2.5906  -18.1476   24.3501 C   0  0  0  0  0  0  0  0  0  0  0  0
    0.8989  -19.5496   24.0214 C   0  0  0  0  0  0  0  0  0  0  0  0
   -0.2837  -21.2422   23.6039 C   0  0  0  0  0  0  0  0  0  0  0  0
   -0.5747  -22.6798   23.7135 C   0  0  0  0  0  0  0  0  0  0  0  0
   -1.8674  -23.0181   23.3250 N   0  0  0  0  0  0  0  0  0  0  0  0
   -2.6205  -21.9040   23.2538 C   0  0  0  0  0  0  0  0  0  0  0  0
   -1.8604  -20.8538   23.4015 N   0  0  0  0  0  0  0  0  0  0  0  0
    5.9985  -13.3786   19.3700 C   0  0  0  0  0  0  0  0  0  0  0  0
    7.8074   -8.5136   14.1679 H   0  0  0  0  0  0  0  0  0  0  0  0
    7.3119   -9.6322   12.8876 H   0  0  0  0  0  0  0  0  0  0  0  0
    6.1443   -8.5085   13.5884 H   0  0  0  0  0  0  0  0  0  0  0  0
    6.2439   -9.7011   15.7615 H   0  0  0  0  0  0  0  0  0  0  0  0
    5.7025  -10.7018   14.4575 H   0  0  0  0  0  0  0  0  0  0  0  0
    7.9195  -11.7226   14.1848 H   0  0  0  0  0  0  0  0  0  0  0  0
    8.8128  -10.6168   16.8653 H   0  0  0  0  0  0  0  0  0  0  0  0
    9.1934   -9.7801   15.3332 H   0  0  0  0  0  0  0  0  0  0  0  0
   10.0295  -12.5990   15.9884 H   0  0  0  0  0  0  0  0  0  0  0  0
   10.3606  -11.7253   14.4810 H   0  0  0  0  0  0  0  0  0  0  0  0
   11.0478  -11.1496   16.0083 H   0  0  0  0  0  0  0  0  0  0  0  0
    6.5799  -11.0650   17.3378 H   0  0  0  0  0  0  0  0  0  0  0  0
    4.7897  -13.4367   17.5592 H   0  0  0  0  0  0  0  0  0  0  0  0
    3.6696  -11.6168   18.4774 H   0  0  0  0  0  0  0  0  0  0  0  0
    5.0978  -10.8237   19.1125 H   0  0  0  0  0  0  0  0  0  0  0  0
    5.2255  -11.9652   20.9404 H   0  0  0  0  0  0  0  0  0  0  0  0
    3.3313  -12.4264   22.4656 H   0  0  0  0  0  0  0  0  0  0  0  0
    2.9280  -13.6104   20.9518 H   0  0  0  0  0  0  0  0  0  0  0  0
    1.8024  -14.8241   23.1109 H   0  0  0  0  0  0  0  0  0  0  0  0
    2.8150  -18.0727   25.4232 H   0  0  0  0  0  0  0  0  0  0  0  0
    3.2494  -18.9713   24.0831 H   0  0  0  0  0  0  0  0  0  0  0  0
    1.3311  -20.0567   23.0014 H   0  0  0  0  0  0  0  0  0  0  0  0
    0.0856  -19.0919   23.4423 H   0  0  0  0  0  0  0  0  0  0  0  0
   -0.0747  -23.5026   24.2082 H   0  0  0  0  0  0  0  0  0  0  0  0
   -2.2326  -23.9577   23.3087 H   0  0  0  0  0  0  0  0  0  0  0  0
   -3.6887  -21.9007   23.0895 H   0  0  0  0  0  0  0  0  0  0  0  0
    6.9942  -13.0076   19.6436 H   0  0  0  0  0  0  0  0  0  0  0  0
    6.0450  -14.4453   19.1245 H   0  0  0  0  0  0  0  0  0  0  0  0
  1  2  1  0
  2  3  1  0
  3  4  1  0
  4  5  1  0
  3  6  1  0
  6  7  2  0
  6  8  1  0
  8  9  1  0
  9 10  1  0
 10 11  1  0
 11 12  1  0
 12 13  1  0
 13 14  1  0
 14 15  2  0
 14 16  1  0
 16 17  1  0
 17 18  1  0
 18 19  2  0
 19 20  1  0
 20 21  1  0
 21 22  2  0
 11 23  1  0
 23  9  1  0
 22 18  1  0
  1 24  1  0
  1 25  1  0
  1 26  1  0
  2 27  1  0
  2 28  1  0
  3 29  1  0
  4 30  1  0
  4 31  1  0
  5 32  1  0
  5 33  1  0
  5 34  1  0
  8 35  1  0
  9 36  1  0
 10 37  1  0
 10 38  1  0
 11 39  1  0
 12 40  1  0
 12 41  1  0
 13 42  1  0
 16 43  1  0
 16 44  1  0
 17 45  1  0
 17 46  1  0
 19 47  1  0
 20 48  1  0
 21 49  1  0
 23 50  1  0
 23 51  1  0
M  END
>  <Energy>  (57) 
814.70444816190547

>  <compound_id>  (57) 
73145

>  <target_id>  (57) 
1

>  <reference_id>  (57) 
27

>  <inspiration_ids>  (57) 
[27, 35]

>  <energy_score>  (57) 
793.8773024702652

>  <distance_score>  (57) 
12.318168261097712

>  <path>  (57) 
/opt/xchem-fragalysis-2/maxwin/BulkDock/SCRATCH/511022/C73145-P27/C73145-P27.minimised.mol

>  <scratch_subdir>  (57) 
/opt/xchem-fragalysis-2/maxwin/BulkDock/SCRATCH/511022/C73145-P27

>  <fragmenstein_runtime>  (57) 
59.626299142837524

>  <fragmenstein_outcome>  (57) 
too moved

>  <fragmenstein_mode>  (57) 
expansion

>  <fragmenstein_error>  (57) 


$$$$
C73145-P35
     RDKit          3D

 51 52  0  0  0  0  0  0  0  0999 V2000
   11.4305   -5.9255   24.6482 C   0  0  0  0  0  0  0  0  0  0  0  0
   10.6893   -7.2664   24.5639 C   0  0  0  0  0  0  0  0  0  0  0  0
   11.3611   -8.3407   23.6816 C   0  0  0  0  0  0  0  0  0  0  0  0
   11.3944   -7.8266   22.2053 C   0  0  0  0  0  0  0  0  0  0  0  0
   12.6583   -7.0387   21.8529 C   0  0  0  0  0  0  0  0  0  0  0  0
   10.8817   -9.8804   23.7394 C   0  0  0  0  0  0  0  0  0  0  0  0
   11.4333  -10.6086   22.9575 O   0  0  0  0  0  0  0  0  0  0  0  0
    9.9019  -10.1696   24.7701 N   0  0  0  0  0  0  0  0  0  0  0  0
    9.3401  -11.4709   25.2554 C   0  0  0  0  0  0  0  0  0  0  0  0
   10.1111  -12.7734   24.9794 C   0  0  0  0  0  0  0  0  0  0  0  0
    8.6703  -13.5781   24.8730 C   0  0  0  0  0  0  0  0  0  0  0  0
    8.3810  -15.3129   23.9514 C   0  0  0  0  0  0  0  0  0  0  0  0
    6.6462  -16.4333   24.0437 N   0  0  0  0  0  0  0  0  0  0  0  0
    4.9304  -15.9724   24.4687 C   0  0  0  0  0  0  0  0  0  0  0  0
    4.4991  -14.8448   24.6658 O   0  0  0  0  0  0  0  0  0  0  0  0
    3.4922  -17.4708   24.9410 C   0  0  0  0  0  0  0  0  0  0  0  0
    2.2359  -17.5808   26.5678 C   0  0  0  0  0  0  0  0  0  0  0  0
    0.2160  -17.9645   26.7464 C   0  0  0  0  0  0  0  0  0  0  0  0
   -0.8870  -18.8935   26.7320 C   0  0  0  0  0  0  0  0  0  0  0  0
   -2.0297  -18.4537   26.2355 N   0  0  0  0  0  0  0  0  0  0  0  0
   -2.0888  -17.3296   26.8727 C   0  0  0  0  0  0  0  0  0  0  0  0
   -0.8293  -17.1643   27.2460 N   0  0  0  0  0  0  0  0  0  0  0  0
    8.1147  -12.1138   24.5680 C   0  0  0  0  0  0  0  0  0  0  0  0
   11.5050   -5.4130   23.6936 H   0  0  0  0  0  0  0  0  0  0  0  0
   12.4423   -6.0732   25.0400 H   0  0  0  0  0  0  0  0  0  0  0  0
   10.9032   -5.2584   25.3385 H   0  0  0  0  0  0  0  0  0  0  0  0
   10.6243   -7.6367   25.5934 H   0  0  0  0  0  0  0  0  0  0  0  0
    9.6585   -7.0984   24.2298 H   0  0  0  0  0  0  0  0  0  0  0  0
   12.4011   -8.4196   24.0345 H   0  0  0  0  0  0  0  0  0  0  0  0
   11.2982   -8.6638   21.5092 H   0  0  0  0  0  0  0  0  0  0  0  0
   10.5115   -7.2066   22.0194 H   0  0  0  0  0  0  0  0  0  0  0  0
   12.4733   -6.3607   21.0170 H   0  0  0  0  0  0  0  0  0  0  0  0
   13.0402   -6.4363   22.6776 H   0  0  0  0  0  0  0  0  0  0  0  0
   13.4648   -7.7289   21.5853 H   0  0  0  0  0  0  0  0  0  0  0  0
    9.7171   -9.3255   25.2953 H   0  0  0  0  0  0  0  0  0  0  0  0
    9.1504  -11.3584   26.3339 H   0  0  0  0  0  0  0  0  0  0  0  0
   10.7663  -12.9452   25.8331 H   0  0  0  0  0  0  0  0  0  0  0  0
   10.7848  -12.8075   24.1257 H   0  0  0  0  0  0  0  0  0  0  0  0
    8.2182  -13.7200   25.8694 H   0  0  0  0  0  0  0  0  0  0  0  0
    8.4349  -15.5007   24.9922 H   0  0  0  0  0  0  0  0  0  0  0  0
    8.7004  -14.6156   23.2110 H   0  0  0  0  0  0  0  0  0  0  0  0
    6.6947  -17.4108   23.8511 H   0  0  0  0  0  0  0  0  0  0  0  0
    3.8749  -18.4299   25.3096 H   0  0  0  0  0  0  0  0  0  0  0  0
    2.9825  -17.7954   24.0812 H   0  0  0  0  0  0  0  0  0  0  0  0
    2.8326  -18.3910   26.8669 H   0  0  0  0  0  0  0  0  0  0  0  0
    2.4253  -16.7775   27.2930 H   0  0  0  0  0  0  0  0  0  0  0  0
   -1.0380  -19.9067   27.0736 H   0  0  0  0  0  0  0  0  0  0  0  0
   -2.7954  -19.0391   25.9287 H   0  0  0  0  0  0  0  0  0  0  0  0
   -2.9012  -16.6389   27.0695 H   0  0  0  0  0  0  0  0  0  0  0  0
    7.9641  -11.9296   23.5268 H   0  0  0  0  0  0  0  0  0  0  0  0
    7.1674  -11.8730   25.0652 H   0  0  0  0  0  0  0  0  0  0  0  0
  1  2  1  0
  2  3  1  0
  3  4  1  0
  4  5  1  0
  3  6  1  0
  6  7  2  0
  6  8  1  0
  8  9  1  0
  9 10  1  0
 10 11  1  0
 11 12  1  0
 12 13  1  0
 13 14  1  0
 14 15  2  0
 14 16  1  0
 16 17  1  0
 17 18  1  0
 18 19  2  0
 19 20  1  0
 20 21  1  0
 21 22  2  0
 11 23  1  0
 23  9  1  0
 22 18  1  0
  1 24  1  0
  1 25  1  0
  1 26  1  0
  2 27  1  0
  2 28  1  0
  3 29  1  0
  4 30  1  0
  4 31  1  0
  5 32  1  0
  5 33  1  0
  5 34  1  0
  8 35  1  0
  9 36  1  0
 10 37  1  0
 10 38  1  0
 11 39  1  0
 12 40  1  0
 12 41  1  0
 13 42  1  0
 16 43  1  0
 16 44  1  0
 17 45  1  0
 17 46  1  0
 19 47  1  0
 20 48  1  0
 21 49  1  0
 23 50  1  0
 23 51  1  0
M  END
>  <Energy>  (58) 
663.01860179305822

>  <compound_id>  (58) 
73145

>  <target_id>  (58) 
1

>  <reference_id>  (58) 
35

>  <inspiration_ids>  (58) 
[27, 35]

>  <energy_score>  (58) 
642.1914561014225

>  <distance_score>  (58) 
11.753661296574142

>  <path>  (58) 
/opt/xchem-fragalysis-2/maxwin/BulkDock/SCRATCH/511022/C73145-P35/C73145-P35.minimised.mol

>  <scratch_subdir>  (58) 
/opt/xchem-fragalysis-2/maxwin/BulkDock/SCRATCH/511022/C73145-P35

>  <fragmenstein_runtime>  (58) 
45.70273566246033

>  <fragmenstein_outcome>  (58) 
too moved

>  <fragmenstein_mode>  (58) 
expansion

>  <fragmenstein_error>  (58) 


$$$$
C23867-P27
     RDKit          3D

 51 52  0  0  0  0  0  0  0  0999 V2000
   10.6602   -7.5127   22.8352 C   0  0  0  0  0  0  0  0  0  0  0  0
   10.3986   -8.9702   23.1945 C   0  0  0  0  0  0  0  0  0  0  0  0
    8.9496   -9.5177   22.9848 C   0  0  0  0  0  0  0  0  0  0  0  0
    8.4838   -9.2976   21.5112 C   0  0  0  0  0  0  0  0  0  0  0  0
    7.9289   -7.9078   21.1934 C   0  0  0  0  0  0  0  0  0  0  0  0
    8.9563  -11.0743   23.3480 C   0  0  0  0  0  0  0  0  0  0  0  0
    9.4943  -11.8038   22.5557 O   0  0  0  0  0  0  0  0  0  0  0  0
    8.3723  -11.3590   24.6713 N   0  0  0  0  0  0  0  0  0  0  0  0
    8.3538  -12.6325   25.4951 C   0  0  0  0  0  0  0  0  0  0  0  0
    8.7147  -13.8952   24.7551 C   0  0  0  0  0  0  0  0  0  0  0  0
    7.4207  -15.0792   25.7300 C   0  0  0  0  0  0  0  0  0  0  0  0
    6.0812  -16.1440   24.6194 N   0  0  0  0  0  0  0  0  0  0  0  0
    4.6346  -15.8034   24.1695 C   0  0  0  0  0  0  0  0  0  0  0  0
    4.0021  -14.7857   24.2987 O   0  0  0  0  0  0  0  0  0  0  0  0
    3.6431  -17.3561   23.4022 C   0  0  0  0  0  0  0  0  0  0  0  0
    4.9424  -18.3130   22.0385 C   0  0  0  0  0  0  0  0  0  0  0  0
    2.4816  -18.8290   24.2881 C   0  0  0  0  0  0  0  0  0  0  0  0
    0.5740  -19.6418   23.7614 C   0  0  0  0  0  0  0  0  0  0  0  0
   -0.0196  -21.1814   23.2858 C   0  0  0  0  0  0  0  0  0  0  0  0
   -1.2743  -21.5312   23.3593 N   0  0  0  0  0  0  0  0  0  0  0  0
   -1.8787  -20.4421   23.4178 C   0  0  0  0  0  0  0  0  0  0  0  0
   -0.9586  -19.4372   23.1495 N   0  0  0  0  0  0  0  0  0  0  0  0
    7.0966  -13.2105   26.1454 C   0  0  0  0  0  0  0  0  0  0  0  0
    9.8894   -6.8800   23.2791 H   0  0  0  0  0  0  0  0  0  0  0  0
   10.6976   -7.3718   21.7541 H   0  0  0  0  0  0  0  0  0  0  0  0
   11.6304   -7.1985   23.2338 H   0  0  0  0  0  0  0  0  0  0  0  0
   11.1086   -9.5949   22.6370 H   0  0  0  0  0  0  0  0  0  0  0  0
   10.6525   -9.1112   24.2535 H   0  0  0  0  0  0  0  0  0  0  0  0
    8.2588   -9.0022   23.6615 H   0  0  0  0  0  0  0  0  0  0  0  0
    7.6800  -10.0180   21.3081 H   0  0  0  0  0  0  0  0  0  0  0  0
    9.2910   -9.5424   20.8102 H   0  0  0  0  0  0  0  0  0  0  0  0
    7.3039   -7.5377   22.0120 H   0  0  0  0  0  0  0  0  0  0  0  0
    8.7137   -7.1776   20.9968 H   0  0  0  0  0  0  0  0  0  0  0  0
    7.2983   -7.9597   20.3004 H   0  0  0  0  0  0  0  0  0  0  0  0
    8.0775  -10.4873   25.0984 H   0  0  0  0  0  0  0  0  0  0  0  0
    9.0895  -12.4510   26.2965 H   0  0  0  0  0  0  0  0  0  0  0  0
    9.8011  -13.8957   24.8995 H   0  0  0  0  0  0  0  0  0  0  0  0
    8.7838  -13.8769   23.6743 H   0  0  0  0  0  0  0  0  0  0  0  0
    7.7097  -15.7623   26.5150 H   0  0  0  0  0  0  0  0  0  0  0  0
    6.3210  -17.0281   24.2850 H   0  0  0  0  0  0  0  0  0  0  0  0
    3.8320  -17.4952   24.5320 H   0  0  0  0  0  0  0  0  0  0  0  0
    6.0149  -18.2230   22.2999 H   0  0  0  0  0  0  0  0  0  0  0  0
    5.1096  -17.9995   20.9811 H   0  0  0  0  0  0  0  0  0  0  0  0
    4.2996  -19.2001   21.9814 H   0  0  0  0  0  0  0  0  0  0  0  0
    3.2180  -19.6254   24.4893 H   0  0  0  0  0  0  0  0  0  0  0  0
    2.3463  -18.2030   25.1457 H   0  0  0  0  0  0  0  0  0  0  0  0
    0.4381  -22.0506   22.8860 H   0  0  0  0  0  0  0  0  0  0  0  0
   -2.9201  -20.4210   23.7048 H   0  0  0  0  0  0  0  0  0  0  0  0
   -1.0055  -18.6817   22.4871 H   0  0  0  0  0  0  0  0  0  0  0  0
    7.1104  -12.9242   27.1944 H   0  0  0  0  0  0  0  0  0  0  0  0
    6.1702  -12.7831   25.7519 H   0  0  0  0  0  0  0  0  0  0  0  0
  1  2  1  0
  2  3  1  0
  3  4  1  0
  4  5  1  0
  3  6  1  0
  6  7  2  0
  6  8  1  0
  8  9  1  0
  9 10  1  0
 10 11  1  0
 11 12  1  0
 12 13  1  0
 13 14  2  0
 13 15  1  0
 15 16  1  0
 15 17  1  0
 17 18  1  0
 18 19  2  0
 19 20  1  0
 20 21  2  0
 21 22  1  0
 11 23  1  0
 23  9  1  0
 22 18  1  0
  1 24  1  0
  1 25  1  0
  1 26  1  0
  2 27  1  0
  2 28  1  0
  3 29  1  0
  4 30  1  0
  4 31  1  0
  5 32  1  0
  5 33  1  0
  5 34  1  0
  8 35  1  0
  9 36  1  0
 10 37  1  0
 10 38  1  0
 11 39  1  0
 12 40  1  0
 15 41  1  0
 16 42  1  0
 16 43  1  0
 16 44  1  0
 17 45  1  0
 17 46  1  0
 19 47  1  0
 21 48  1  0
 22 49  1  0
 23 50  1  0
 23 51  1  0
M  END
>  <Energy>  (59) 
705.28686527503555

>  <compound_id>  (59) 
23867

>  <target_id>  (59) 
1

>  <reference_id>  (59) 
27

>  <inspiration_ids>  (59) 
[27, 35]

>  <energy_score>  (59) 
680.3399496436348

>  <distance_score>  (59) 
12.646501767658405

>  <path>  (59) 
/opt/xchem-fragalysis-2/maxwin/BulkDock/SCRATCH/511022/C23867-P27/C23867-P27.minimised.mol

>  <scratch_subdir>  (59) 
/opt/xchem-fragalysis-2/maxwin/BulkDock/SCRATCH/511022/C23867-P27

>  <fragmenstein_runtime>  (59) 
38.31881642341614

>  <fragmenstein_outcome>  (59) 
too moved

>  <fragmenstein_mode>  (59) 
expansion

>  <fragmenstein_error>  (59) 


$$$$
C23867-P35
     RDKit          3D

 51 52  0  0  0  0  0  0  0  0999 V2000
   14.2160   -3.0017   23.2021 C   0  0  0  0  0  0  0  0  0  0  0  0
   14.0901   -4.5177   23.3727 C   0  0  0  0  0  0  0  0  0  0  0  0
   12.8245   -5.1173   22.7396 C   0  0  0  0  0  0  0  0  0  0  0  0
   13.0419   -5.4462   21.2287 C   0  0  0  0  0  0  0  0  0  0  0  0
   13.4278   -4.3140   20.2884 C   0  0  0  0  0  0  0  0  0  0  0  0
   12.3318   -6.4452   23.4807 C   0  0  0  0  0  0  0  0  0  0  0  0
   12.7169   -7.4947   23.0429 O   0  0  0  0  0  0  0  0  0  0  0  0
   11.4341   -6.1520   24.5934 N   0  0  0  0  0  0  0  0  0  0  0  0
   10.7904   -7.0561   25.5979 C   0  0  0  0  0  0  0  0  0  0  0  0
    9.6963   -6.4477   26.5045 C   0  0  0  0  0  0  0  0  0  0  0  0
    8.6427   -7.4686   26.0039 C   0  0  0  0  0  0  0  0  0  0  0  0
    7.9696   -8.3772   27.0163 N   0  0  0  0  0  0  0  0  0  0  0  0
    6.5886   -8.3824   27.5420 C   0  0  0  0  0  0  0  0  0  0  0  0
    5.6789   -7.6183   27.3567 O   0  0  0  0  0  0  0  0  0  0  0  0
    6.2483   -9.6791   28.4536 C   0  0  0  0  0  0  0  0  0  0  0  0
    6.5933  -10.9354   27.6621 C   0  0  0  0  0  0  0  0  0  0  0  0
    4.7273   -9.6526   28.9545 C   0  0  0  0  0  0  0  0  0  0  0  0
    4.0029  -10.8592   29.6272 C   0  0  0  0  0  0  0  0  0  0  0  0
    4.3732  -11.9793   30.3521 C   0  0  0  0  0  0  0  0  0  0  0  0
    3.2855  -12.7476   30.7147 N   0  0  0  0  0  0  0  0  0  0  0  0
    2.2357  -12.1256   30.2409 C   0  0  0  0  0  0  0  0  0  0  0  0
    2.6076  -10.9691   29.6144 N   0  0  0  0  0  0  0  0  0  0  0  0
    9.7431   -8.0738   25.0840 C   0  0  0  0  0  0  0  0  0  0  0  0
   13.3640   -2.4929   23.6631 H   0  0  0  0  0  0  0  0  0  0  0  0
   14.2880   -2.6896   22.1610 H   0  0  0  0  0  0  0  0  0  0  0  0
   15.1208   -2.6512   23.7102 H   0  0  0  0  0  0  0  0  0  0  0  0
   14.0890   -4.7308   24.4490 H   0  0  0  0  0  0  0  0  0  0  0  0
   14.9856   -5.0057   22.9696 H   0  0  0  0  0  0  0  0  0  0  0  0
   12.0385   -4.3670   22.8333 H   0  0  0  0  0  0  0  0  0  0  0  0
   13.8144   -6.2213   21.1461 H   0  0  0  0  0  0  0  0  0  0  0  0
   12.1225   -5.9010   20.8505 H   0  0  0  0  0  0  0  0  0  0  0  0
   14.4769   -4.0355   20.4230 H   0  0  0  0  0  0  0  0  0  0  0  0
   13.3135   -4.6327   19.2473 H   0  0  0  0  0  0  0  0  0  0  0  0
   12.8066   -3.4347   20.4479 H   0  0  0  0  0  0  0  0  0  0  0  0
   11.2653   -5.1529   24.6279 H   0  0  0  0  0  0  0  0  0  0  0  0
   11.5777   -7.5449   26.1868 H   0  0  0  0  0  0  0  0  0  0  0  0
    9.4376   -5.4068   26.2803 H   0  0  0  0  0  0  0  0  0  0  0  0
    9.9238   -6.5172   27.5740 H   0  0  0  0  0  0  0  0  0  0  0  0
    7.8597   -6.9764   25.4109 H   0  0  0  0  0  0  0  0  0  0  0  0
    8.4422   -9.2229   27.3164 H   0  0  0  0  0  0  0  0  0  0  0  0
    6.8856   -9.6257   29.3449 H   0  0  0  0  0  0  0  0  0  0  0  0
    5.9616  -11.7773   27.9337 H   0  0  0  0  0  0  0  0  0  0  0  0
    6.5058  -10.7823   26.5831 H   0  0  0  0  0  0  0  0  0  0  0  0
    7.6309  -11.2305   27.8545 H   0  0  0  0  0  0  0  0  0  0  0  0
    4.1020   -9.3699   28.0971 H   0  0  0  0  0  0  0  0  0  0  0  0
    4.6416   -8.8162   29.6625 H   0  0  0  0  0  0  0  0  0  0  0  0
    5.3727  -12.2767   30.6407 H   0  0  0  0  0  0  0  0  0  0  0  0
    1.2062  -12.4482   30.3256 H   0  0  0  0  0  0  0  0  0  0  0  0
    1.9732  -10.3099   29.1850 H   0  0  0  0  0  0  0  0  0  0  0  0
    9.9988   -9.1164   25.3028 H   0  0  0  0  0  0  0  0  0  0  0  0
    9.5116   -7.9967   24.0159 H   0  0  0  0  0  0  0  0  0  0  0  0
  1  2  1  0
  2  3  1  0
  3  4  1  0
  4  5  1  0
  3  6  1  0
  6  7  2  0
  6  8  1  0
  8  9  1  0
  9 10  1  0
 10 11  1  0
 11 12  1  0
 12 13  1  0
 13 14  2  0
 13 15  1  0
 15 16  1  0
 15 17  1  0
 17 18  1  0
 18 19  2  0
 19 20  1  0
 20 21  2  0
 21 22  1  0
 11 23  1  0
 23  9  1  0
 22 18  1  0
  1 24  1  0
  1 25  1  0
  1 26  1  0
  2 27  1  0
  2 28  1  0
  3 29  1  0
  4 30  1  0
  4 31  1  0
  5 32  1  0
  5 33  1  0
  5 34  1  0
  8 35  1  0
  9 36  1  0
 10 37  1  0
 10 38  1  0
 11 39  1  0
 12 40  1  0
 15 41  1  0
 16 42  1  0
 16 43  1  0
 16 44  1  0
 17 45  1  0
 17 46  1  0
 19 47  1  0
 21 48  1  0
 22 49  1  0
 23 50  1  0
 23 51  1  0
M  END
>  <Energy>  (60) 
23.711748690943189

>  <compound_id>  (60) 
23867

>  <target_id>  (60) 
1

>  <reference_id>  (60) 
35

>  <inspiration_ids>  (60) 
[27, 35]

>  <energy_score>  (60) 
-1.2351669404508812

>  <distance_score>  (60) 
12.927773139970455

>  <path>  (60) 
/opt/xchem-fragalysis-2/maxwin/BulkDock/SCRATCH/511022/C23867-P35/C23867-P35.minimised.mol

>  <scratch_subdir>  (60) 
/opt/xchem-fragalysis-2/maxwin/BulkDock/SCRATCH/511022/C23867-P35

>  <fragmenstein_runtime>  (60) 
30.570910453796387

>  <fragmenstein_outcome>  (60) 
too moved

>  <fragmenstein_mode>  (60) 
expansion

>  <fragmenstein_error>  (60) 


$$$$
C73144-P27
     RDKit          3D

 51 52  0  0  0  0  0  0  0  0999 V2000
    5.8201   -5.8072   20.9561 C   0  0  0  0  0  0  0  0  0  0  0  0
    6.2983   -6.5943   19.7486 C   0  0  0  0  0  0  0  0  0  0  0  0
    5.4652   -7.8786   19.4247 C   0  0  0  0  0  0  0  0  0  0  0  0
    5.6442   -8.3181   17.9505 C   0  0  0  0  0  0  0  0  0  0  0  0
    5.4846   -7.2346   16.8886 C   0  0  0  0  0  0  0  0  0  0  0  0
    5.9220   -9.0779   20.3259 C   0  0  0  0  0  0  0  0  0  0  0  0
    7.0838   -9.1161   20.6270 O   0  0  0  0  0  0  0  0  0  0  0  0
    4.8087   -9.9198   20.7357 N   0  0  0  0  0  0  0  0  0  0  0  0
    4.7376  -11.0454   21.7477 C   0  0  0  0  0  0  0  0  0  0  0  0
    3.7854  -10.8483   22.8316 C   0  0  0  0  0  0  0  0  0  0  0  0
    3.1134  -12.6702   23.4601 C   0  0  0  0  0  0  0  0  0  0  0  0
    1.3824  -13.5100   24.0496 N   0  0  0  0  0  0  0  0  0  0  0  0
    0.4477  -13.4056   25.6864 C   0  0  0  0  0  0  0  0  0  0  0  0
    0.9096  -12.8567   26.6259 O   0  0  0  0  0  0  0  0  0  0  0  0
   -1.6164  -14.1559   25.6588 C   0  0  0  0  0  0  0  0  0  0  0  0
   -2.3449  -14.8767   27.2805 C   0  0  0  0  0  0  0  0  0  0  0  0
   -3.0463  -12.9477   25.7811 C   0  0  0  0  0  0  0  0  0  0  0  0
   -2.7315  -15.4249   24.9284 C   0  0  0  0  0  0  0  0  0  0  0  0
   -3.1642  -16.6835   25.4891 C   0  0  0  0  0  0  0  0  0  0  0  0
   -4.4419  -16.9551   25.0705 N   0  0  0  0  0  0  0  0  0  0  0  0
   -4.8065  -15.9305   24.2689 C   0  0  0  0  0  0  0  0  0  0  0  0
   -3.8570  -15.0243   24.1934 N   0  0  0  0  0  0  0  0  0  0  0  0
    3.8106  -12.6017   21.6357 C   0  0  0  0  0  0  0  0  0  0  0  0
    6.4733   -4.9500   21.1420 H   0  0  0  0  0  0  0  0  0  0  0  0
    4.8031   -5.4345   20.7988 H   0  0  0  0  0  0  0  0  0  0  0  0
    5.8193   -6.4326   21.8544 H   0  0  0  0  0  0  0  0  0  0  0  0
    6.2665   -5.9068   18.9064 H   0  0  0  0  0  0  0  0  0  0  0  0
    7.3376   -6.8498   19.9513 H   0  0  0  0  0  0  0  0  0  0  0  0
    4.4067   -7.6571   19.6048 H   0  0  0  0  0  0  0  0  0  0  0  0
    4.8940   -9.0951   17.7490 H   0  0  0  0  0  0  0  0  0  0  0  0
    6.6069   -8.8215   17.8200 H   0  0  0  0  0  0  0  0  0  0  0  0
    6.3402   -6.5631   16.8593 H   0  0  0  0  0  0  0  0  0  0  0  0
    4.5772   -6.6476   17.0598 H   0  0  0  0  0  0  0  0  0  0  0  0
    5.4065   -7.6956   15.8983 H   0  0  0  0  0  0  0  0  0  0  0  0
    3.9415   -9.5411   20.3438 H   0  0  0  0  0  0  0  0  0  0  0  0
    5.7737  -10.9154   22.1364 H   0  0  0  0  0  0  0  0  0  0  0  0
    3.2255  -10.0071   22.4082 H   0  0  0  0  0  0  0  0  0  0  0  0
    4.4419  -10.0651   23.2962 H   0  0  0  0  0  0  0  0  0  0  0  0
    3.6066  -13.2985   24.1770 H   0  0  0  0  0  0  0  0  0  0  0  0
    0.8379  -14.1211   23.3856 H   0  0  0  0  0  0  0  0  0  0  0  0
   -2.0045  -15.8769   27.5054 H   0  0  0  0  0  0  0  0  0  0  0  0
   -2.2436  -14.3461   28.2175 H   0  0  0  0  0  0  0  0  0  0  0  0
   -3.4375  -14.9639   27.1850 H   0  0  0  0  0  0  0  0  0  0  0  0
   -3.6866  -13.1263   26.6533 H   0  0  0  0  0  0  0  0  0  0  0  0
   -3.8025  -13.0374   24.9925 H   0  0  0  0  0  0  0  0  0  0  0  0
   -2.7539  -11.9002   25.7637 H   0  0  0  0  0  0  0  0  0  0  0  0
   -2.7164  -17.3610   26.2050 H   0  0  0  0  0  0  0  0  0  0  0  0
   -5.0030  -17.7591   25.3170 H   0  0  0  0  0  0  0  0  0  0  0  0
   -5.7665  -15.8767   23.7737 H   0  0  0  0  0  0  0  0  0  0  0  0
    4.6353  -13.0441   21.0029 H   0  0  0  0  0  0  0  0  0  0  0  0
    3.2225  -13.1898   20.9683 H   0  0  0  0  0  0  0  0  0  0  0  0
  1  2  1  0
  2  3  1  0
  3  4  1  0
  4  5  1  0
  3  6  1  0
  6  7  2  0
  6  8  1  0
  8  9  1  0
  9 10  1  0
 10 11  1  0
 11 12  1  0
 12 13  1  0
 13 14  2  0
 13 15  1  0
 15 16  1  0
 15 17  1  0
 15 18  1  0
 18 19  2  0
 19 20  1  0
 20 21  1  0
 21 22  2  0
 11 23  1  0
 23  9  1  0
 22 18  1  0
  1 24  1  0
  1 25  1  0
  1 26  1  0
  2 27  1  0
  2 28  1  0
  3 29  1  0
  4 30  1  0
  4 31  1  0
  5 32  1  0
  5 33  1  0
  5 34  1  0
  8 35  1  0
  9 36  1  0
 10 37  1  0
 10 38  1  0
 11 39  1  0
 12 40  1  0
 16 41  1  0
 16 42  1  0
 16 43  1  0
 17 44  1  0
 17 45  1  0
 17 46  1  0
 19 47  1  0
 20 48  1  0
 21 49  1  0
 23 50  1  0
 23 51  1  0
M  END
>  <Energy>  (61) 
689.24676708358402

>  <compound_id>  (61) 
73144

>  <target_id>  (61) 
1

>  <reference_id>  (61) 
27

>  <inspiration_ids>  (61) 
[27, 35]

>  <energy_score>  (61) 
634.4667285504328

>  <distance_score>  (61) 
12.731947657855843

>  <path>  (61) 
/opt/xchem-fragalysis-2/maxwin/BulkDock/SCRATCH/511022/C73144-P27/C73144-P27.minimised.mol

>  <scratch_subdir>  (61) 
/opt/xchem-fragalysis-2/maxwin/BulkDock/SCRATCH/511022/C73144-P27

>  <fragmenstein_runtime>  (61) 
46.3691987991333

>  <fragmenstein_outcome>  (61) 
too moved

>  <fragmenstein_mode>  (61) 
expansion

>  <fragmenstein_error>  (61) 


$$$$
C73144-P35
     RDKit          3D

 51 52  0  0  0  0  0  0  0  0999 V2000
   10.8975   -9.7640   23.3260 C   0  0  0  0  0  0  0  0  0  0  0  0
   10.6589   -9.9419   21.8340 C   0  0  0  0  0  0  0  0  0  0  0  0
    9.7368   -8.8907   21.2156 C   0  0  0  0  0  0  0  0  0  0  0  0
   10.0144   -7.4631   21.7183 C   0  0  0  0  0  0  0  0  0  0  0  0
   11.4934   -7.0283   21.7879 C   0  0  0  0  0  0  0  0  0  0  0  0
    8.2443   -9.3032   21.4155 C   0  0  0  0  0  0  0  0  0  0  0  0
    7.7059   -9.0568   22.4580 O   0  0  0  0  0  0  0  0  0  0  0  0
    7.7695  -10.0430   20.2523 N   0  0  0  0  0  0  0  0  0  0  0  0
    6.5176  -10.8030   20.0301 C   0  0  0  0  0  0  0  0  0  0  0  0
    5.3157  -10.4774   20.9032 C   0  0  0  0  0  0  0  0  0  0  0  0
    4.9209  -12.2095   20.9118 C   0  0  0  0  0  0  0  0  0  0  0  0
    3.6237  -12.2920   22.3524 N   0  0  0  0  0  0  0  0  0  0  0  0
    2.9215  -13.7113   23.2316 C   0  0  0  0  0  0  0  0  0  0  0  0
    3.2433  -14.8709   23.1043 O   0  0  0  0  0  0  0  0  0  0  0  0
    1.3253  -13.4471   24.4283 C   0  0  0  0  0  0  0  0  0  0  0  0
    1.9016  -12.1159   24.1472 C   0  0  0  0  0  0  0  0  0  0  0  0
    1.4595  -13.3743   26.0961 C   0  0  0  0  0  0  0  0  0  0  0  0
   -0.6581  -14.1290   24.4051 C   0  0  0  0  0  0  0  0  0  0  0  0
   -1.9204  -14.0789   25.5327 C   0  0  0  0  0  0  0  0  0  0  0  0
   -3.2022  -14.4483   25.1712 N   0  0  0  0  0  0  0  0  0  0  0  0
   -2.8792  -15.1868   24.1393 C   0  0  0  0  0  0  0  0  0  0  0  0
   -1.5621  -15.0284   23.7633 N   0  0  0  0  0  0  0  0  0  0  0  0
    6.5587  -12.1507   20.7407 C   0  0  0  0  0  0  0  0  0  0  0  0
   11.4901   -8.8835   23.5774 H   0  0  0  0  0  0  0  0  0  0  0  0
    9.9531   -9.7128   23.8766 H   0  0  0  0  0  0  0  0  0  0  0  0
   11.4486  -10.6301   23.7097 H   0  0  0  0  0  0  0  0  0  0  0  0
   11.6291   -9.9556   21.3292 H   0  0  0  0  0  0  0  0  0  0  0  0
   10.2327  -10.9405   21.6719 H   0  0  0  0  0  0  0  0  0  0  0  0
    9.9280   -8.9097   20.1470 H   0  0  0  0  0  0  0  0  0  0  0  0
    9.5877   -7.3486   22.7235 H   0  0  0  0  0  0  0  0  0  0  0  0
    9.4407   -6.7822   21.0807 H   0  0  0  0  0  0  0  0  0  0  0  0
   12.2035   -7.8514   21.7063 H   0  0  0  0  0  0  0  0  0  0  0  0
   11.6871   -6.5457   22.7535 H   0  0  0  0  0  0  0  0  0  0  0  0
   11.7610   -6.2972   21.0215 H   0  0  0  0  0  0  0  0  0  0  0  0
    8.5242  -10.1248   19.5811 H   0  0  0  0  0  0  0  0  0  0  0  0
    6.2775  -10.8735   18.9632 H   0  0  0  0  0  0  0  0  0  0  0  0
    5.5220  -10.1080   21.9146 H   0  0  0  0  0  0  0  0  0  0  0  0
    4.6458   -9.7553   20.4254 H   0  0  0  0  0  0  0  0  0  0  0  0
    4.4829  -12.6860   20.0273 H   0  0  0  0  0  0  0  0  0  0  0  0
    3.2347  -11.4411   22.7167 H   0  0  0  0  0  0  0  0  0  0  0  0
    1.6615  -11.6430   25.0419 H   0  0  0  0  0  0  0  0  0  0  0  0
    2.9445  -12.1092   24.1632 H   0  0  0  0  0  0  0  0  0  0  0  0
    1.4705  -11.6778   23.2641 H   0  0  0  0  0  0  0  0  0  0  0  0
    1.0631  -14.1830   26.6071 H   0  0  0  0  0  0  0  0  0  0  0  0
    1.0278  -12.4833   26.5597 H   0  0  0  0  0  0  0  0  0  0  0  0
    2.4149  -13.6859   26.4971 H   0  0  0  0  0  0  0  0  0  0  0  0
   -1.9813  -14.5462   26.5165 H   0  0  0  0  0  0  0  0  0  0  0  0
   -4.0251  -14.5295   25.7550 H   0  0  0  0  0  0  0  0  0  0  0  0
   -3.6592  -15.7355   23.6269 H   0  0  0  0  0  0  0  0  0  0  0  0
    6.9957  -12.9230   20.1045 H   0  0  0  0  0  0  0  0  0  0  0  0
    7.1977  -11.9843   21.6094 H   0  0  0  0  0  0  0  0  0  0  0  0
  1  2  1  0
  2  3  1  0
  3  4  1  0
  4  5  1  0
  3  6  1  0
  6  7  2  0
  6  8  1  0
  8  9  1  0
  9 10  1  0
 10 11  1  0
 11 12  1  0
 12 13  1  0
 13 14  2  0
 13 15  1  0
 15 16  1  0
 15 17  1  0
 15 18  1  0
 18 19  2  0
 19 20  1  0
 20 21  1  0
 21 22  2  0
 11 23  1  0
 23  9  1  0
 22 18  1  0
  1 24  1  0
  1 25  1  0
  1 26  1  0
  2 27  1  0
  2 28  1  0
  3 29  1  0
  4 30  1  0
  4 31  1  0
  5 32  1  0
  5 33  1  0
  5 34  1  0
  8 35  1  0
  9 36  1  0
 10 37  1  0
 10 38  1  0
 11 39  1  0
 12 40  1  0
 16 41  1  0
 16 42  1  0
 16 43  1  0
 17 44  1  0
 17 45  1  0
 17 46  1  0
 19 47  1  0
 20 48  1  0
 21 49  1  0
 23 50  1  0
 23 51  1  0
M  END
>  <Energy>  (62) 
575.21710881746208

>  <compound_id>  (62) 
73144

>  <target_id>  (62) 
1

>  <reference_id>  (62) 
35

>  <inspiration_ids>  (62) 
[27, 35]

>  <energy_score>  (62) 
520.4370702843104

>  <distance_score>  (62) 
12.913524444068146

>  <path>  (62) 
/opt/xchem-fragalysis-2/maxwin/BulkDock/SCRATCH/511022/C73144-P35/C73144-P35.minimised.mol

>  <scratch_subdir>  (62) 
/opt/xchem-fragalysis-2/maxwin/BulkDock/SCRATCH/511022/C73144-P35

>  <fragmenstein_runtime>  (62) 
32.14238429069519

>  <fragmenstein_outcome>  (62) 
too moved

>  <fragmenstein_mode>  (62) 
expansion

>  <fragmenstein_error>  (62) 


$$$$
C23868-P27
     RDKit          3D

 42 43  0  0  0  0  0  0  0  0999 V2000
   14.6750   -1.6242   20.2666 C   0  0  0  0  0  0  0  0  0  0  0  0
   14.8339   -3.0349   20.8291 C   0  0  0  0  0  0  0  0  0  0  0  0
   13.6720   -4.0439   20.5999 C   0  0  0  0  0  0  0  0  0  0  0  0
   13.7240   -4.6359   19.1748 C   0  0  0  0  0  0  0  0  0  0  0  0
   13.6768   -3.7098   17.9691 C   0  0  0  0  0  0  0  0  0  0  0  0
   13.7538   -5.2351   21.6639 C   0  0  0  0  0  0  0  0  0  0  0  0
   14.7620   -5.3324   22.3071 O   0  0  0  0  0  0  0  0  0  0  0  0
   12.5750   -6.0967   21.6076 N   0  0  0  0  0  0  0  0  0  0  0  0
   12.2980   -7.4062   22.2495 C   0  0  0  0  0  0  0  0  0  0  0  0
   10.9405   -8.1469   21.9986 C   0  0  0  0  0  0  0  0  0  0  0  0
   11.2396   -8.8658   23.3559 C   0  0  0  0  0  0  0  0  0  0  0  0
   10.1336   -9.5255   24.1035 N   0  0  0  0  0  0  0  0  0  0  0  0
    9.4209  -10.7669   23.8478 C   0  0  0  0  0  0  0  0  0  0  0  0
    9.4906  -11.5289   22.9275 O   0  0  0  0  0  0  0  0  0  0  0  0
    8.5281  -11.2341   24.9420 C   0  0  0  0  0  0  0  0  0  0  0  0
    8.3258  -12.5680   25.3017 C   0  0  0  0  0  0  0  0  0  0  0  0
    7.2976  -12.7395   26.1925 N   0  0  0  0  0  0  0  0  0  0  0  0
    6.9489  -11.5204   26.5137 C   0  0  0  0  0  0  0  0  0  0  0  0
    7.6257  -10.5856   25.7625 N   0  0  0  0  0  0  0  0  0  0  0  0
   11.8656   -7.4878   23.7577 C   0  0  0  0  0  0  0  0  0  0  0  0
   15.5965   -1.0590   20.4461 H   0  0  0  0  0  0  0  0  0  0  0  0
   14.4869   -1.5943   19.1957 H   0  0  0  0  0  0  0  0  0  0  0  0
   13.8749   -1.0870   20.7757 H   0  0  0  0  0  0  0  0  0  0  0  0
   15.7646   -3.4657   20.4376 H   0  0  0  0  0  0  0  0  0  0  0  0
   14.9925   -2.9160   21.9090 H   0  0  0  0  0  0  0  0  0  0  0  0
   12.7200   -3.5374   20.7703 H   0  0  0  0  0  0  0  0  0  0  0  0
   12.8746   -5.3025   19.0799 H   0  0  0  0  0  0  0  0  0  0  0  0
   14.6178   -5.2662   19.0916 H   0  0  0  0  0  0  0  0  0  0  0  0
   14.6383   -3.2129   17.8161 H   0  0  0  0  0  0  0  0  0  0  0  0
   13.4777   -4.2930   17.0632 H   0  0  0  0  0  0  0  0  0  0  0  0
   12.8893   -2.9619   18.0582 H   0  0  0  0  0  0  0  0  0  0  0  0
   11.9463   -5.7513   20.8886 H   0  0  0  0  0  0  0  0  0  0  0  0
   13.1606   -8.0571   22.0358 H   0  0  0  0  0  0  0  0  0  0  0  0
   10.0490   -7.5092   21.9977 H   0  0  0  0  0  0  0  0  0  0  0  0
   10.8920   -8.8189   21.1410 H   0  0  0  0  0  0  0  0  0  0  0  0
   12.0243   -9.6320   23.2409 H   0  0  0  0  0  0  0  0  0  0  0  0
    9.8831   -9.1843   25.0233 H   0  0  0  0  0  0  0  0  0  0  0  0
    8.8691  -13.4178   24.9020 H   0  0  0  0  0  0  0  0  0  0  0  0
    6.2211  -11.2402   27.2638 H   0  0  0  0  0  0  0  0  0  0  0  0
    7.4609   -9.5899   25.7953 H   0  0  0  0  0  0  0  0  0  0  0  0
   12.6874   -7.5390   24.4767 H   0  0  0  0  0  0  0  0  0  0  0  0
   11.1481   -6.7258   24.0829 H   0  0  0  0  0  0  0  0  0  0  0  0
  1  2  1  0
  2  3  1  0
  3  4  1  0
  4  5  1  0
  3  6  1  0
  6  7  2  0
  6  8  1  0
  8  9  1  0
  9 10  1  0
 10 11  1  0
 11 12  1  0
 12 13  1  0
 13 14  2  0
 13 15  1  0
 15 16  2  0
 16 17  1  0
 17 18  2  0
 18 19  1  0
 11 20  1  0
 20  9  1  0
 19 15  1  0
  1 21  1  0
  1 22  1  0
  1 23  1  0
  2 24  1  0
  2 25  1  0
  3 26  1  0
  4 27  1  0
  4 28  1  0
  5 29  1  0
  5 30  1  0
  5 31  1  0
  8 32  1  0
  9 33  1  0
 10 34  1  0
 10 35  1  0
 11 36  1  0
 12 37  1  0
 16 38  1  0
 18 39  1  0
 19 40  1  0
 20 41  1  0
 20 42  1  0
M  END
>  <Energy>  (63) 
1.3148537794552335

>  <compound_id>  (63) 
23868

>  <target_id>  (63) 
1

>  <reference_id>  (63) 
27

>  <inspiration_ids>  (63) 
[27, 35]

>  <energy_score>  (63) 
2.2980923984268884

>  <distance_score>  (63) 
14.152561100436653

>  <path>  (63) 
/opt/xchem-fragalysis-2/maxwin/BulkDock/SCRATCH/511022/C23868-P27/C23868-P27.minimised.mol

>  <scratch_subdir>  (63) 
/opt/xchem-fragalysis-2/maxwin/BulkDock/SCRATCH/511022/C23868-P27

>  <fragmenstein_runtime>  (63) 
31.944294691085815

>  <fragmenstein_outcome>  (63) 
too moved

>  <fragmenstein_mode>  (63) 
expansion

>  <fragmenstein_error>  (63) 


$$$$
C23868-P35
     RDKit          3D

 42 43  0  0  0  0  0  0  0  0999 V2000
   14.5195   -2.8782   21.8957 C   0  0  0  0  0  0  0  0  0  0  0  0
   15.1163   -4.2161   21.4760 C   0  0  0  0  0  0  0  0  0  0  0  0
   14.1816   -5.1406   20.6717 C   0  0  0  0  0  0  0  0  0  0  0  0
   13.5016   -4.3762   19.5030 C   0  0  0  0  0  0  0  0  0  0  0  0
   14.4395   -3.7811   18.4614 C   0  0  0  0  0  0  0  0  0  0  0  0
   13.1172   -5.9146   21.5601 C   0  0  0  0  0  0  0  0  0  0  0  0
   11.9635   -5.6314   21.4394 O   0  0  0  0  0  0  0  0  0  0  0  0
   13.7595   -6.9066   22.3880 N   0  0  0  0  0  0  0  0  0  0  0  0
   13.2088   -7.8174   23.4175 C   0  0  0  0  0  0  0  0  0  0  0  0
   12.4610   -9.1224   22.9787 C   0  0  0  0  0  0  0  0  0  0  0  0
   11.7974   -9.0513   24.4009 C   0  0  0  0  0  0  0  0  0  0  0  0
   10.5029   -9.7336   24.6820 N   0  0  0  0  0  0  0  0  0  0  0  0
    9.6650   -9.7327   25.8707 C   0  0  0  0  0  0  0  0  0  0  0  0
    9.7653   -9.1191   26.8936 O   0  0  0  0  0  0  0  0  0  0  0  0
    8.5520  -10.7241   25.8736 C   0  0  0  0  0  0  0  0  0  0  0  0
    8.1036  -11.7560   25.0617 C   0  0  0  0  0  0  0  0  0  0  0  0
    7.0177  -12.4309   25.5970 N   0  0  0  0  0  0  0  0  0  0  0  0
    6.7892  -11.8362   26.7408 C   0  0  0  0  0  0  0  0  0  0  0  0
    7.6765  -10.8274   26.9579 N   0  0  0  0  0  0  0  0  0  0  0  0
   11.8748   -7.5010   24.1725 C   0  0  0  0  0  0  0  0  0  0  0  0
   14.2829   -2.2376   21.0431 H   0  0  0  0  0  0  0  0  0  0  0  0
   15.2367   -2.3334   22.5189 H   0  0  0  0  0  0  0  0  0  0  0  0
   13.6175   -3.0373   22.4924 H   0  0  0  0  0  0  0  0  0  0  0  0
   15.4602   -4.7319   22.3799 H   0  0  0  0  0  0  0  0  0  0  0  0
   16.0172   -4.0166   20.8825 H   0  0  0  0  0  0  0  0  0  0  0  0
   14.8096   -5.9241   20.2250 H   0  0  0  0  0  0  0  0  0  0  0  0
   12.8286   -5.0570   18.9855 H   0  0  0  0  0  0  0  0  0  0  0  0
   12.8734   -3.5785   19.9060 H   0  0  0  0  0  0  0  0  0  0  0  0
   15.1323   -4.5339   18.0757 H   0  0  0  0  0  0  0  0  0  0  0  0
   15.0309   -2.9602   18.8764 H   0  0  0  0  0  0  0  0  0  0  0  0
   13.8631   -3.3826   17.6203 H   0  0  0  0  0  0  0  0  0  0  0  0
   14.7659   -6.8123   22.2965 H   0  0  0  0  0  0  0  0  0  0  0  0
   14.0284   -8.0343   24.1208 H   0  0  0  0  0  0  0  0  0  0  0  0
   11.7681   -9.0067   22.1372 H   0  0  0  0  0  0  0  0  0  0  0  0
   13.0997   -9.9919   22.8034 H   0  0  0  0  0  0  0  0  0  0  0  0
   12.4984   -9.3794   25.1855 H   0  0  0  0  0  0  0  0  0  0  0  0
   10.1644  -10.4379   24.0404 H   0  0  0  0  0  0  0  0  0  0  0  0
    8.5246  -12.0650   24.1157 H   0  0  0  0  0  0  0  0  0  0  0  0
    6.0104  -12.0666   27.4509 H   0  0  0  0  0  0  0  0  0  0  0  0
    7.7275  -10.2324   27.7754 H   0  0  0  0  0  0  0  0  0  0  0  0
   11.0646   -7.0875   23.5617 H   0  0  0  0  0  0  0  0  0  0  0  0
   11.9824   -6.9003   25.0795 H   0  0  0  0  0  0  0  0  0  0  0  0
  1  2  1  0
  2  3  1  0
  3  4  1  0
  4  5  1  0
  3  6  1  0
  6  7  2  0
  6  8  1  0
  8  9  1  0
  9 10  1  0
 10 11  1  0
 11 12  1  0
 12 13  1  0
 13 14  2  0
 13 15  1  0
 15 16  2  0
 16 17  1  0
 17 18  2  0
 18 19  1  0
 11 20  1  0
 20  9  1  0
 19 15  1  0
  1 21  1  0
  1 22  1  0
  1 23  1  0
  2 24  1  0
  2 25  1  0
  3 26  1  0
  4 27  1  0
  4 28  1  0
  5 29  1  0
  5 30  1  0
  5 31  1  0
  8 32  1  0
  9 33  1  0
 10 34  1  0
 10 35  1  0
 11 36  1  0
 12 37  1  0
 16 38  1  0
 18 39  1  0
 19 40  1  0
 20 41  1  0
 20 42  1  0
M  END
>  <Energy>  (64) 
-14.242895298328559

>  <compound_id>  (64) 
23868

>  <target_id>  (64) 
1

>  <reference_id>  (64) 
35

>  <inspiration_ids>  (64) 
[27, 35]

>  <energy_score>  (64) 
-13.259656679355885

>  <distance_score>  (64) 
14.23921974942071

>  <path>  (64) 
/opt/xchem-fragalysis-2/maxwin/BulkDock/SCRATCH/511022/C23868-P35/C23868-P35.minimised.mol

>  <scratch_subdir>  (64) 
/opt/xchem-fragalysis-2/maxwin/BulkDock/SCRATCH/511022/C23868-P35

>  <fragmenstein_runtime>  (64) 
19.475216388702393

>  <fragmenstein_outcome>  (64) 
too moved

>  <fragmenstein_mode>  (64) 
expansion

>  <fragmenstein_error>  (64) 


$$$$
C76311-P27
     RDKit          3D

 54 55  0  0  0  0  0  0  0  0999 V2000
   15.9503   -6.6016   21.1694 C   0  0  0  0  0  0  0  0  0  0  0  0
   15.0261   -6.8026   22.3730 C   0  0  0  0  0  0  0  0  0  0  0  0
   13.5031   -6.8622   22.0902 C   0  0  0  0  0  0  0  0  0  0  0  0
   13.1627   -5.8239   20.9676 C   0  0  0  0  0  0  0  0  0  0  0  0
   13.2327   -4.3673   21.4091 C   0  0  0  0  0  0  0  0  0  0  0  0
   12.9770   -8.3860   21.8613 C   0  0  0  0  0  0  0  0  0  0  0  0
   13.7088   -9.1622   21.3130 O   0  0  0  0  0  0  0  0  0  0  0  0
   11.5898   -8.5355   22.3057 N   0  0  0  0  0  0  0  0  0  0  0  0
   10.6056   -9.6750   22.1286 C   0  0  0  0  0  0  0  0  0  0  0  0
    9.9084   -9.6944   20.7410 C   0  0  0  0  0  0  0  0  0  0  0  0
    8.5205  -10.4078   20.6084 C   0  0  0  0  0  0  0  0  0  0  0  0
    7.4302   -9.9524   21.6101 C   0  0  0  0  0  0  0  0  0  0  0  0
    6.1850  -10.7954   21.6761 N   0  0  0  0  0  0  0  0  0  0  0  0
    4.8356  -10.5300   22.3344 C   0  0  0  0  0  0  0  0  0  0  0  0
    4.4179   -9.5393   22.8874 O   0  0  0  0  0  0  0  0  0  0  0  0
    3.6098  -11.9555   22.4829 C   0  0  0  0  0  0  0  0  0  0  0  0
    3.2833  -13.4076   23.7510 C   0  0  0  0  0  0  0  0  0  0  0  0
    4.2070  -14.8136   24.6858 C   0  0  0  0  0  0  0  0  0  0  0  0
    4.1385  -15.0182   26.1119 C   0  0  0  0  0  0  0  0  0  0  0  0
    3.5752  -16.6234   26.5327 N   0  0  0  0  0  0  0  0  0  0  0  0
    3.7094  -17.4846   25.1720 C   0  0  0  0  0  0  0  0  0  0  0  0
    4.3242  -16.3901   24.1395 N   0  0  0  0  0  0  0  0  0  0  0  0
    8.1217  -10.1162   23.0115 C   0  0  0  0  0  0  0  0  0  0  0  0
    9.5655   -9.6098   23.2675 C   0  0  0  0  0  0  0  0  0  0  0  0
   15.7328   -7.3229   20.3760 H   0  0  0  0  0  0  0  0  0  0  0  0
   16.9895   -6.7556   21.4802 H   0  0  0  0  0  0  0  0  0  0  0  0
   15.8920   -5.5876   20.7647 H   0  0  0  0  0  0  0  0  0  0  0  0
   15.3287   -7.7191   22.8945 H   0  0  0  0  0  0  0  0  0  0  0  0
   15.2186   -5.9820   23.0762 H   0  0  0  0  0  0  0  0  0  0  0  0
   13.0118   -6.5378   23.0184 H   0  0  0  0  0  0  0  0  0  0  0  0
   13.8425   -5.9160   20.1203 H   0  0  0  0  0  0  0  0  0  0  0  0
   12.1841   -6.0056   20.5438 H   0  0  0  0  0  0  0  0  0  0  0  0
   12.9747   -3.7060   20.5774 H   0  0  0  0  0  0  0  0  0  0  0  0
   12.5442   -4.1730   22.2352 H   0  0  0  0  0  0  0  0  0  0  0  0
   14.2387   -4.0978   21.7431 H   0  0  0  0  0  0  0  0  0  0  0  0
   11.3147   -7.7106   22.8029 H   0  0  0  0  0  0  0  0  0  0  0  0
   11.1892  -10.5985   22.2234 H   0  0  0  0  0  0  0  0  0  0  0  0
   10.5907  -10.1794   20.0332 H   0  0  0  0  0  0  0  0  0  0  0  0
    9.7863   -8.6758   20.3810 H   0  0  0  0  0  0  0  0  0  0  0  0
    8.1451  -10.2680   19.5875 H   0  0  0  0  0  0  0  0  0  0  0  0
    8.6828  -11.4880   20.7239 H   0  0  0  0  0  0  0  0  0  0  0  0
    7.0960   -8.9303   21.4310 H   0  0  0  0  0  0  0  0  0  0  0  0
    6.1678  -11.7051   21.2333 H   0  0  0  0  0  0  0  0  0  0  0  0
    3.6149  -12.3984   21.4736 H   0  0  0  0  0  0  0  0  0  0  0  0
    2.6608  -11.4004   22.5432 H   0  0  0  0  0  0  0  0  0  0  0  0
    2.4653  -13.0413   24.3586 H   0  0  0  0  0  0  0  0  0  0  0  0
    2.8954  -14.1822   23.0995 H   0  0  0  0  0  0  0  0  0  0  0  0
    3.8989  -14.4162   26.9710 H   0  0  0  0  0  0  0  0  0  0  0  0
    3.2395  -16.8999   27.4549 H   0  0  0  0  0  0  0  0  0  0  0  0
    3.3254  -18.4860   25.0299 H   0  0  0  0  0  0  0  0  0  0  0  0
    7.4651   -9.6804   23.7769 H   0  0  0  0  0  0  0  0  0  0  0  0
    8.1378  -11.1921   23.2411 H   0  0  0  0  0  0  0  0  0  0  0  0
    9.9700  -10.1783   24.1175 H   0  0  0  0  0  0  0  0  0  0  0  0
    9.4976   -8.5937   23.6716 H   0  0  0  0  0  0  0  0  0  0  0  0
  1  2  1  0
  2  3  1  0
  3  4  1  0
  4  5  1  0
  3  6  1  0
  6  7  2  0
  6  8  1  0
  8  9  1  0
  9 10  1  0
 10 11  1  0
 11 12  1  0
 12 13  1  0
 13 14  1  0
 14 15  2  0
 14 16  1  0
 16 17  1  0
 17 18  1  0
 18 19  2  0
 19 20  1  0
 20 21  1  0
 21 22  2  0
 12 23  1  0
 23 24  1  0
 24  9  1  0
 22 18  1  0
  1 25  1  0
  1 26  1  0
  1 27  1  0
  2 28  1  0
  2 29  1  0
  3 30  1  0
  4 31  1  0
  4 32  1  0
  5 33  1  0
  5 34  1  0
  5 35  1  0
  8 36  1  0
  9 37  1  0
 10 38  1  0
 10 39  1  0
 11 40  1  0
 11 41  1  0
 12 42  1  0
 13 43  1  0
 16 44  1  0
 16 45  1  0
 17 46  1  0
 17 47  1  0
 19 48  1  0
 20 49  1  0
 21 50  1  0
 23 51  1  0
 23 52  1  0
 24 53  1  0
 24 54  1  0
M  END
>  <Energy>  (65) 
295.23942905988656

>  <compound_id>  (65) 
76311

>  <target_id>  (65) 
1

>  <reference_id>  (65) 
27

>  <inspiration_ids>  (65) 
[27, 35]

>  <energy_score>  (65) 
284.9722156940019

>  <distance_score>  (65) 
12.410350042531533

>  <path>  (65) 
/opt/xchem-fragalysis-2/maxwin/BulkDock/SCRATCH/511022/C76311-P27/C76311-P27.minimised.mol

>  <scratch_subdir>  (65) 
/opt/xchem-fragalysis-2/maxwin/BulkDock/SCRATCH/511022/C76311-P27

>  <fragmenstein_runtime>  (65) 
26.281031370162964

>  <fragmenstein_outcome>  (65) 
too moved

>  <fragmenstein_mode>  (65) 
expansion

>  <fragmenstein_error>  (65) 


$$$$
C76311-P35
     RDKit          3D

 54 55  0  0  0  0  0  0  0  0999 V2000
   13.7201   -6.3522   24.9859 C   0  0  0  0  0  0  0  0  0  0  0  0
   13.3017   -7.8174   24.7993 C   0  0  0  0  0  0  0  0  0  0  0  0
   12.2078   -8.0351   23.7545 C   0  0  0  0  0  0  0  0  0  0  0  0
   12.7435   -7.8789   22.2931 C   0  0  0  0  0  0  0  0  0  0  0  0
   13.3760   -6.5304   21.9245 C   0  0  0  0  0  0  0  0  0  0  0  0
   11.3410   -9.3757   23.9049 C   0  0  0  0  0  0  0  0  0  0  0  0
   11.4984  -10.2454   23.0944 O   0  0  0  0  0  0  0  0  0  0  0  0
   10.3938   -9.2652   25.0056 N   0  0  0  0  0  0  0  0  0  0  0  0
    9.2651  -10.1407   25.4104 C   0  0  0  0  0  0  0  0  0  0  0  0
    9.5386  -11.4015   26.2421 C   0  0  0  0  0  0  0  0  0  0  0  0
    8.3650  -12.4841   26.2454 C   0  0  0  0  0  0  0  0  0  0  0  0
    6.9085  -11.9873   25.9539 C   0  0  0  0  0  0  0  0  0  0  0  0
    5.6375  -13.1125   26.1429 N   0  0  0  0  0  0  0  0  0  0  0  0
    4.6831  -13.4989   27.4746 C   0  0  0  0  0  0  0  0  0  0  0  0
    4.7562  -12.9082   28.4963 O   0  0  0  0  0  0  0  0  0  0  0  0
    3.4545  -15.1527   27.3839 C   0  0  0  0  0  0  0  0  0  0  0  0
    1.9071  -16.5594   27.5631 C   0  0  0  0  0  0  0  0  0  0  0  0
    0.1346  -17.4843   27.1751 C   0  0  0  0  0  0  0  0  0  0  0  0
   -1.3925  -17.0168   27.2182 C   0  0  0  0  0  0  0  0  0  0  0  0
   -2.3476  -17.7922   26.6603 N   0  0  0  0  0  0  0  0  0  0  0  0
   -1.6060  -18.8606   26.5952 C   0  0  0  0  0  0  0  0  0  0  0  0
   -0.3052  -18.4990   26.3771 N   0  0  0  0  0  0  0  0  0  0  0  0
    7.0540  -11.0752   24.6753 C   0  0  0  0  0  0  0  0  0  0  0  0
    8.4395  -10.5787   24.2177 C   0  0  0  0  0  0  0  0  0  0  0  0
   14.2209   -6.2431   25.9546 H   0  0  0  0  0  0  0  0  0  0  0  0
   12.8576   -5.6792   24.9832 H   0  0  0  0  0  0  0  0  0  0  0  0
   14.4417   -6.0286   24.2348 H   0  0  0  0  0  0  0  0  0  0  0  0
   12.9375   -8.1832   25.7674 H   0  0  0  0  0  0  0  0  0  0  0  0
   14.1831   -8.4254   24.5634 H   0  0  0  0  0  0  0  0  0  0  0  0
   11.4840   -7.2372   23.9174 H   0  0  0  0  0  0  0  0  0  0  0  0
   13.4667   -8.6768   22.0822 H   0  0  0  0  0  0  0  0  0  0  0  0
   11.8977   -8.0630   21.6236 H   0  0  0  0  0  0  0  0  0  0  0  0
   13.2124   -6.2796   20.8778 H   0  0  0  0  0  0  0  0  0  0  0  0
   12.9635   -5.7011   22.5045 H   0  0  0  0  0  0  0  0  0  0  0  0
   14.4581   -6.5633   22.0841 H   0  0  0  0  0  0  0  0  0  0  0  0
   10.4911   -8.3520   25.4361 H   0  0  0  0  0  0  0  0  0  0  0  0
    8.6446   -9.4769   26.0276 H   0  0  0  0  0  0  0  0  0  0  0  0
   10.4543  -11.8957   25.8939 H   0  0  0  0  0  0  0  0  0  0  0  0
    9.7353  -11.1008   27.2787 H   0  0  0  0  0  0  0  0  0  0  0  0
    8.3902  -13.0064   27.2053 H   0  0  0  0  0  0  0  0  0  0  0  0
    8.6206  -13.2144   25.4720 H   0  0  0  0  0  0  0  0  0  0  0  0
    6.6719  -11.3131   26.7888 H   0  0  0  0  0  0  0  0  0  0  0  0
    5.3500  -13.6775   25.3806 H   0  0  0  0  0  0  0  0  0  0  0  0
    4.0056  -15.7889   28.0241 H   0  0  0  0  0  0  0  0  0  0  0  0
    2.6272  -14.4806   27.5679 H   0  0  0  0  0  0  0  0  0  0  0  0
    2.4956  -17.3513   27.0918 H   0  0  0  0  0  0  0  0  0  0  0  0
    1.6172  -16.6194   28.5997 H   0  0  0  0  0  0  0  0  0  0  0  0
   -1.7644  -15.9901   27.4461 H   0  0  0  0  0  0  0  0  0  0  0  0
   -3.3526  -17.6702   26.6660 H   0  0  0  0  0  0  0  0  0  0  0  0
   -2.0666  -19.8380   26.5657 H   0  0  0  0  0  0  0  0  0  0  0  0
    6.6411  -11.5492   23.8026 H   0  0  0  0  0  0  0  0  0  0  0  0
    6.5061  -10.1476   24.8668 H   0  0  0  0  0  0  0  0  0  0  0  0
    8.2985   -9.7500   23.5131 H   0  0  0  0  0  0  0  0  0  0  0  0
    8.9547  -11.3712   23.6597 H   0  0  0  0  0  0  0  0  0  0  0  0
  1  2  1  0
  2  3  1  0
  3  4  1  0
  4  5  1  0
  3  6  1  0
  6  7  2  0
  6  8  1  0
  8  9  1  0
  9 10  1  0
 10 11  1  0
 11 12  1  0
 12 13  1  0
 13 14  1  0
 14 15  2  0
 14 16  1  0
 16 17  1  0
 17 18  1  0
 18 19  2  0
 19 20  1  0
 20 21  1  0
 21 22  2  0
 12 23  1  0
 23 24  1  0
 24  9  1  0
 22 18  1  0
  1 25  1  0
  1 26  1  0
  1 27  1  0
  2 28  1  0
  2 29  1  0
  3 30  1  0
  4 31  1  0
  4 32  1  0
  5 33  1  0
  5 34  1  0
  5 35  1  0
  8 36  1  0
  9 37  1  0
 10 38  1  0
 10 39  1  0
 11 40  1  0
 11 41  1  0
 12 42  1  0
 13 43  1  0
 16 44  1  0
 16 45  1  0
 17 46  1  0
 17 47  1  0
 19 48  1  0
 20 49  1  0
 21 50  1  0
 23 51  1  0
 23 52  1  0
 24 53  1  0
 24 54  1  0
M  END
>  <Energy>  (66) 
469.62931644980654

>  <compound_id>  (66) 
76311

>  <target_id>  (66) 
1

>  <reference_id>  (66) 
35

>  <inspiration_ids>  (66) 
[27, 35]

>  <energy_score>  (66) 
459.3621030839322

>  <distance_score>  (66) 
11.576391136229152

>  <path>  (66) 
/opt/xchem-fragalysis-2/maxwin/BulkDock/SCRATCH/511022/C76311-P35/C76311-P35.minimised.mol

>  <scratch_subdir>  (66) 
/opt/xchem-fragalysis-2/maxwin/BulkDock/SCRATCH/511022/C76311-P35

>  <fragmenstein_runtime>  (66) 
32.987011194229126

>  <fragmenstein_outcome>  (66) 
too moved

>  <fragmenstein_mode>  (66) 
expansion

>  <fragmenstein_error>  (66) 


$$$$
C23867-P27
     RDKit          3D

 51 52  0  0  0  0  0  0  0  0999 V2000
   10.6602   -7.5127   22.8352 C   0  0  0  0  0  0  0  0  0  0  0  0
   10.3986   -8.9702   23.1945 C   0  0  0  0  0  0  0  0  0  0  0  0
    8.9496   -9.5177   22.9848 C   0  0  0  0  0  0  0  0  0  0  0  0
    8.4838   -9.2976   21.5112 C   0  0  0  0  0  0  0  0  0  0  0  0
    7.9289   -7.9078   21.1934 C   0  0  0  0  0  0  0  0  0  0  0  0
    8.9563  -11.0743   23.3480 C   0  0  0  0  0  0  0  0  0  0  0  0
    9.4943  -11.8038   22.5557 O   0  0  0  0  0  0  0  0  0  0  0  0
    8.3723  -11.3590   24.6713 N   0  0  0  0  0  0  0  0  0  0  0  0
    8.3538  -12.6325   25.4951 C   0  0  0  0  0  0  0  0  0  0  0  0
    8.7147  -13.8952   24.7551 C   0  0  0  0  0  0  0  0  0  0  0  0
    7.4207  -15.0792   25.7300 C   0  0  0  0  0  0  0  0  0  0  0  0
    6.0812  -16.1440   24.6194 N   0  0  0  0  0  0  0  0  0  0  0  0
    4.6346  -15.8034   24.1695 C   0  0  0  0  0  0  0  0  0  0  0  0
    4.0021  -14.7857   24.2987 O   0  0  0  0  0  0  0  0  0  0  0  0
    3.6431  -17.3561   23.4022 C   0  0  0  0  0  0  0  0  0  0  0  0
    4.9424  -18.3130   22.0385 C   0  0  0  0  0  0  0  0  0  0  0  0
    2.4816  -18.8290   24.2881 C   0  0  0  0  0  0  0  0  0  0  0  0
    0.5740  -19.6418   23.7614 C   0  0  0  0  0  0  0  0  0  0  0  0
   -0.0196  -21.1814   23.2858 C   0  0  0  0  0  0  0  0  0  0  0  0
   -1.2743  -21.5312   23.3593 N   0  0  0  0  0  0  0  0  0  0  0  0
   -1.8787  -20.4421   23.4178 C   0  0  0  0  0  0  0  0  0  0  0  0
   -0.9586  -19.4372   23.1495 N   0  0  0  0  0  0  0  0  0  0  0  0
    7.0966  -13.2105   26.1454 C   0  0  0  0  0  0  0  0  0  0  0  0
    9.8894   -6.8800   23.2791 H   0  0  0  0  0  0  0  0  0  0  0  0
   10.6976   -7.3718   21.7541 H   0  0  0  0  0  0  0  0  0  0  0  0
   11.6304   -7.1985   23.2338 H   0  0  0  0  0  0  0  0  0  0  0  0
   11.1086   -9.5949   22.6370 H   0  0  0  0  0  0  0  0  0  0  0  0
   10.6525   -9.1112   24.2535 H   0  0  0  0  0  0  0  0  0  0  0  0
    8.2588   -9.0022   23.6615 H   0  0  0  0  0  0  0  0  0  0  0  0
    7.6800  -10.0180   21.3081 H   0  0  0  0  0  0  0  0  0  0  0  0
    9.2910   -9.5424   20.8102 H   0  0  0  0  0  0  0  0  0  0  0  0
    7.3039   -7.5377   22.0120 H   0  0  0  0  0  0  0  0  0  0  0  0
    8.7137   -7.1776   20.9968 H   0  0  0  0  0  0  0  0  0  0  0  0
    7.2983   -7.9597   20.3004 H   0  0  0  0  0  0  0  0  0  0  0  0
    8.0775  -10.4873   25.0984 H   0  0  0  0  0  0  0  0  0  0  0  0
    9.0895  -12.4510   26.2965 H   0  0  0  0  0  0  0  0  0  0  0  0
    9.8011  -13.8957   24.8995 H   0  0  0  0  0  0  0  0  0  0  0  0
    8.7838  -13.8769   23.6743 H   0  0  0  0  0  0  0  0  0  0  0  0
    7.7097  -15.7623   26.5150 H   0  0  0  0  0  0  0  0  0  0  0  0
    6.3210  -17.0281   24.2850 H   0  0  0  0  0  0  0  0  0  0  0  0
    3.8320  -17.4952   24.5320 H   0  0  0  0  0  0  0  0  0  0  0  0
    6.0149  -18.2230   22.2999 H   0  0  0  0  0  0  0  0  0  0  0  0
    5.1096  -17.9995   20.9811 H   0  0  0  0  0  0  0  0  0  0  0  0
    4.2996  -19.2001   21.9814 H   0  0  0  0  0  0  0  0  0  0  0  0
    3.2180  -19.6254   24.4893 H   0  0  0  0  0  0  0  0  0  0  0  0
    2.3463  -18.2030   25.1457 H   0  0  0  0  0  0  0  0  0  0  0  0
    0.4381  -22.0506   22.8860 H   0  0  0  0  0  0  0  0  0  0  0  0
   -2.9201  -20.4210   23.7048 H   0  0  0  0  0  0  0  0  0  0  0  0
   -1.0055  -18.6817   22.4871 H   0  0  0  0  0  0  0  0  0  0  0  0
    7.1104  -12.9242   27.1944 H   0  0  0  0  0  0  0  0  0  0  0  0
    6.1702  -12.7831   25.7519 H   0  0  0  0  0  0  0  0  0  0  0  0
  1  2  1  0
  2  3  1  0
  3  4  1  0
  4  5  1  0
  3  6  1  0
  6  7  2  0
  6  8  1  0
  8  9  1  0
  9 10  1  0
 10 11  1  0
 11 12  1  0
 12 13  1  0
 13 14  2  0
 13 15  1  0
 15 16  1  0
 15 17  1  0
 17 18  1  0
 18 19  2  0
 19 20  1  0
 20 21  2  0
 21 22  1  0
 11 23  1  0
 23  9  1  0
 22 18  1  0
  1 24  1  0
  1 25  1  0
  1 26  1  0
  2 27  1  0
  2 28  1  0
  3 29  1  0
  4 30  1  0
  4 31  1  0
  5 32  1  0
  5 33  1  0
  5 34  1  0
  8 35  1  0
  9 36  1  0
 10 37  1  0
 10 38  1  0
 11 39  1  0
 12 40  1  0
 15 41  1  0
 16 42  1  0
 16 43  1  0
 16 44  1  0
 17 45  1  0
 17 46  1  0
 19 47  1  0
 21 48  1  0
 22 49  1  0
 23 50  1  0
 23 51  1  0
M  END
>  <Energy>  (67) 
705.28686527503555

>  <compound_id>  (67) 
23867

>  <target_id>  (67) 
1

>  <reference_id>  (67) 
27

>  <inspiration_ids>  (67) 
[27, 35]

>  <energy_score>  (67) 
680.3399496436348

>  <distance_score>  (67) 
12.646501767658405

>  <path>  (67) 
/opt/xchem-fragalysis-2/maxwin/BulkDock/SCRATCH/511022/C23867-P27/C23867-P27.minimised.mol

>  <scratch_subdir>  (67) 
/opt/xchem-fragalysis-2/maxwin/BulkDock/SCRATCH/511022/C23867-P27

>  <fragmenstein_runtime>  (67) 
36.65826368331909

>  <fragmenstein_outcome>  (67) 
too moved

>  <fragmenstein_mode>  (67) 
expansion

>  <fragmenstein_error>  (67) 


$$$$
C23867-P35
     RDKit          3D

 51 52  0  0  0  0  0  0  0  0999 V2000
   14.2160   -3.0017   23.2021 C   0  0  0  0  0  0  0  0  0  0  0  0
   14.0901   -4.5177   23.3727 C   0  0  0  0  0  0  0  0  0  0  0  0
   12.8245   -5.1173   22.7396 C   0  0  0  0  0  0  0  0  0  0  0  0
   13.0419   -5.4462   21.2287 C   0  0  0  0  0  0  0  0  0  0  0  0
   13.4278   -4.3140   20.2884 C   0  0  0  0  0  0  0  0  0  0  0  0
   12.3318   -6.4452   23.4807 C   0  0  0  0  0  0  0  0  0  0  0  0
   12.7169   -7.4947   23.0429 O   0  0  0  0  0  0  0  0  0  0  0  0
   11.4341   -6.1520   24.5934 N   0  0  0  0  0  0  0  0  0  0  0  0
   10.7904   -7.0561   25.5979 C   0  0  0  0  0  0  0  0  0  0  0  0
    9.6963   -6.4477   26.5045 C   0  0  0  0  0  0  0  0  0  0  0  0
    8.6427   -7.4686   26.0039 C   0  0  0  0  0  0  0  0  0  0  0  0
    7.9696   -8.3772   27.0163 N   0  0  0  0  0  0  0  0  0  0  0  0
    6.5886   -8.3824   27.5420 C   0  0  0  0  0  0  0  0  0  0  0  0
    5.6789   -7.6183   27.3567 O   0  0  0  0  0  0  0  0  0  0  0  0
    6.2483   -9.6791   28.4536 C   0  0  0  0  0  0  0  0  0  0  0  0
    6.5933  -10.9354   27.6621 C   0  0  0  0  0  0  0  0  0  0  0  0
    4.7273   -9.6526   28.9545 C   0  0  0  0  0  0  0  0  0  0  0  0
    4.0029  -10.8592   29.6272 C   0  0  0  0  0  0  0  0  0  0  0  0
    4.3732  -11.9793   30.3521 C   0  0  0  0  0  0  0  0  0  0  0  0
    3.2855  -12.7476   30.7147 N   0  0  0  0  0  0  0  0  0  0  0  0
    2.2357  -12.1256   30.2409 C   0  0  0  0  0  0  0  0  0  0  0  0
    2.6076  -10.9691   29.6144 N   0  0  0  0  0  0  0  0  0  0  0  0
    9.7431   -8.0738   25.0840 C   0  0  0  0  0  0  0  0  0  0  0  0
   13.3640   -2.4929   23.6631 H   0  0  0  0  0  0  0  0  0  0  0  0
   14.2880   -2.6896   22.1610 H   0  0  0  0  0  0  0  0  0  0  0  0
   15.1208   -2.6512   23.7102 H   0  0  0  0  0  0  0  0  0  0  0  0
   14.0890   -4.7308   24.4490 H   0  0  0  0  0  0  0  0  0  0  0  0
   14.9856   -5.0057   22.9696 H   0  0  0  0  0  0  0  0  0  0  0  0
   12.0385   -4.3670   22.8333 H   0  0  0  0  0  0  0  0  0  0  0  0
   13.8144   -6.2213   21.1461 H   0  0  0  0  0  0  0  0  0  0  0  0
   12.1225   -5.9010   20.8505 H   0  0  0  0  0  0  0  0  0  0  0  0
   14.4769   -4.0355   20.4230 H   0  0  0  0  0  0  0  0  0  0  0  0
   13.3135   -4.6327   19.2473 H   0  0  0  0  0  0  0  0  0  0  0  0
   12.8066   -3.4347   20.4479 H   0  0  0  0  0  0  0  0  0  0  0  0
   11.2653   -5.1529   24.6279 H   0  0  0  0  0  0  0  0  0  0  0  0
   11.5777   -7.5449   26.1868 H   0  0  0  0  0  0  0  0  0  0  0  0
    9.4376   -5.4068   26.2803 H   0  0  0  0  0  0  0  0  0  0  0  0
    9.9238   -6.5172   27.5740 H   0  0  0  0  0  0  0  0  0  0  0  0
    7.8597   -6.9764   25.4109 H   0  0  0  0  0  0  0  0  0  0  0  0
    8.4422   -9.2229   27.3164 H   0  0  0  0  0  0  0  0  0  0  0  0
    6.8856   -9.6257   29.3449 H   0  0  0  0  0  0  0  0  0  0  0  0
    5.9616  -11.7773   27.9337 H   0  0  0  0  0  0  0  0  0  0  0  0
    6.5058  -10.7823   26.5831 H   0  0  0  0  0  0  0  0  0  0  0  0
    7.6309  -11.2305   27.8545 H   0  0  0  0  0  0  0  0  0  0  0  0
    4.1020   -9.3699   28.0971 H   0  0  0  0  0  0  0  0  0  0  0  0
    4.6416   -8.8162   29.6625 H   0  0  0  0  0  0  0  0  0  0  0  0
    5.3727  -12.2767   30.6407 H   0  0  0  0  0  0  0  0  0  0  0  0
    1.2062  -12.4482   30.3256 H   0  0  0  0  0  0  0  0  0  0  0  0
    1.9732  -10.3099   29.1850 H   0  0  0  0  0  0  0  0  0  0  0  0
    9.9988   -9.1164   25.3028 H   0  0  0  0  0  0  0  0  0  0  0  0
    9.5116   -7.9967   24.0159 H   0  0  0  0  0  0  0  0  0  0  0  0
  1  2  1  0
  2  3  1  0
  3  4  1  0
  4  5  1  0
  3  6  1  0
  6  7  2  0
  6  8  1  0
  8  9  1  0
  9 10  1  0
 10 11  1  0
 11 12  1  0
 12 13  1  0
 13 14  2  0
 13 15  1  0
 15 16  1  0
 15 17  1  0
 17 18  1  0
 18 19  2  0
 19 20  1  0
 20 21  2  0
 21 22  1  0
 11 23  1  0
 23  9  1  0
 22 18  1  0
  1 24  1  0
  1 25  1  0
  1 26  1  0
  2 27  1  0
  2 28  1  0
  3 29  1  0
  4 30  1  0
  4 31  1  0
  5 32  1  0
  5 33  1  0
  5 34  1  0
  8 35  1  0
  9 36  1  0
 10 37  1  0
 10 38  1  0
 11 39  1  0
 12 40  1  0
 15 41  1  0
 16 42  1  0
 16 43  1  0
 16 44  1  0
 17 45  1  0
 17 46  1  0
 19 47  1  0
 21 48  1  0
 22 49  1  0
 23 50  1  0
 23 51  1  0
M  END
>  <Energy>  (68) 
23.711748690943189

>  <compound_id>  (68) 
23867

>  <target_id>  (68) 
1

>  <reference_id>  (68) 
35

>  <inspiration_ids>  (68) 
[27, 35]

>  <energy_score>  (68) 
-1.2351669404508812

>  <distance_score>  (68) 
12.927773139970455

>  <path>  (68) 
/opt/xchem-fragalysis-2/maxwin/BulkDock/SCRATCH/511022/C23867-P35/C23867-P35.minimised.mol

>  <scratch_subdir>  (68) 
/opt/xchem-fragalysis-2/maxwin/BulkDock/SCRATCH/511022/C23867-P35

>  <fragmenstein_runtime>  (68) 
30.153744220733643

>  <fragmenstein_outcome>  (68) 
too moved

>  <fragmenstein_mode>  (68) 
expansion

>  <fragmenstein_error>  (68) 


$$$$
C73144-P27
     RDKit          3D

 51 52  0  0  0  0  0  0  0  0999 V2000
    5.8201   -5.8072   20.9561 C   0  0  0  0  0  0  0  0  0  0  0  0
    6.2983   -6.5943   19.7486 C   0  0  0  0  0  0  0  0  0  0  0  0
    5.4652   -7.8786   19.4247 C   0  0  0  0  0  0  0  0  0  0  0  0
    5.6442   -8.3181   17.9505 C   0  0  0  0  0  0  0  0  0  0  0  0
    5.4846   -7.2346   16.8886 C   0  0  0  0  0  0  0  0  0  0  0  0
    5.9220   -9.0779   20.3259 C   0  0  0  0  0  0  0  0  0  0  0  0
    7.0838   -9.1161   20.6270 O   0  0  0  0  0  0  0  0  0  0  0  0
    4.8087   -9.9198   20.7357 N   0  0  0  0  0  0  0  0  0  0  0  0
    4.7376  -11.0454   21.7477 C   0  0  0  0  0  0  0  0  0  0  0  0
    3.7854  -10.8483   22.8316 C   0  0  0  0  0  0  0  0  0  0  0  0
    3.1134  -12.6702   23.4601 C   0  0  0  0  0  0  0  0  0  0  0  0
    1.3824  -13.5100   24.0496 N   0  0  0  0  0  0  0  0  0  0  0  0
    0.4477  -13.4056   25.6864 C   0  0  0  0  0  0  0  0  0  0  0  0
    0.9096  -12.8567   26.6259 O   0  0  0  0  0  0  0  0  0  0  0  0
   -1.6164  -14.1559   25.6588 C   0  0  0  0  0  0  0  0  0  0  0  0
   -2.3449  -14.8767   27.2805 C   0  0  0  0  0  0  0  0  0  0  0  0
   -3.0463  -12.9477   25.7811 C   0  0  0  0  0  0  0  0  0  0  0  0
   -2.7315  -15.4249   24.9284 C   0  0  0  0  0  0  0  0  0  0  0  0
   -3.1642  -16.6835   25.4891 C   0  0  0  0  0  0  0  0  0  0  0  0
   -4.4419  -16.9551   25.0705 N   0  0  0  0  0  0  0  0  0  0  0  0
   -4.8065  -15.9305   24.2689 C   0  0  0  0  0  0  0  0  0  0  0  0
   -3.8570  -15.0243   24.1934 N   0  0  0  0  0  0  0  0  0  0  0  0
    3.8106  -12.6017   21.6357 C   0  0  0  0  0  0  0  0  0  0  0  0
    6.4733   -4.9500   21.1420 H   0  0  0  0  0  0  0  0  0  0  0  0
    4.8031   -5.4345   20.7988 H   0  0  0  0  0  0  0  0  0  0  0  0
    5.8193   -6.4326   21.8544 H   0  0  0  0  0  0  0  0  0  0  0  0
    6.2665   -5.9068   18.9064 H   0  0  0  0  0  0  0  0  0  0  0  0
    7.3376   -6.8498   19.9513 H   0  0  0  0  0  0  0  0  0  0  0  0
    4.4067   -7.6571   19.6048 H   0  0  0  0  0  0  0  0  0  0  0  0
    4.8940   -9.0951   17.7490 H   0  0  0  0  0  0  0  0  0  0  0  0
    6.6069   -8.8215   17.8200 H   0  0  0  0  0  0  0  0  0  0  0  0
    6.3402   -6.5631   16.8593 H   0  0  0  0  0  0  0  0  0  0  0  0
    4.5772   -6.6476   17.0598 H   0  0  0  0  0  0  0  0  0  0  0  0
    5.4065   -7.6956   15.8983 H   0  0  0  0  0  0  0  0  0  0  0  0
    3.9415   -9.5411   20.3438 H   0  0  0  0  0  0  0  0  0  0  0  0
    5.7737  -10.9154   22.1364 H   0  0  0  0  0  0  0  0  0  0  0  0
    3.2255  -10.0071   22.4082 H   0  0  0  0  0  0  0  0  0  0  0  0
    4.4419  -10.0651   23.2962 H   0  0  0  0  0  0  0  0  0  0  0  0
    3.6066  -13.2985   24.1770 H   0  0  0  0  0  0  0  0  0  0  0  0
    0.8379  -14.1211   23.3856 H   0  0  0  0  0  0  0  0  0  0  0  0
   -2.0045  -15.8769   27.5054 H   0  0  0  0  0  0  0  0  0  0  0  0
   -2.2436  -14.3461   28.2175 H   0  0  0  0  0  0  0  0  0  0  0  0
   -3.4375  -14.9639   27.1850 H   0  0  0  0  0  0  0  0  0  0  0  0
   -3.6866  -13.1263   26.6533 H   0  0  0  0  0  0  0  0  0  0  0  0
   -3.8025  -13.0374   24.9925 H   0  0  0  0  0  0  0  0  0  0  0  0
   -2.7539  -11.9002   25.7637 H   0  0  0  0  0  0  0  0  0  0  0  0
   -2.7164  -17.3610   26.2050 H   0  0  0  0  0  0  0  0  0  0  0  0
   -5.0030  -17.7591   25.3170 H   0  0  0  0  0  0  0  0  0  0  0  0
   -5.7665  -15.8767   23.7737 H   0  0  0  0  0  0  0  0  0  0  0  0
    4.6353  -13.0441   21.0029 H   0  0  0  0  0  0  0  0  0  0  0  0
    3.2225  -13.1898   20.9683 H   0  0  0  0  0  0  0  0  0  0  0  0
  1  2  1  0
  2  3  1  0
  3  4  1  0
  4  5  1  0
  3  6  1  0
  6  7  2  0
  6  8  1  0
  8  9  1  0
  9 10  1  0
 10 11  1  0
 11 12  1  0
 12 13  1  0
 13 14  2  0
 13 15  1  0
 15 16  1  0
 15 17  1  0
 15 18  1  0
 18 19  2  0
 19 20  1  0
 20 21  1  0
 21 22  2  0
 11 23  1  0
 23  9  1  0
 22 18  1  0
  1 24  1  0
  1 25  1  0
  1 26  1  0
  2 27  1  0
  2 28  1  0
  3 29  1  0
  4 30  1  0
  4 31  1  0
  5 32  1  0
  5 33  1  0
  5 34  1  0
  8 35  1  0
  9 36  1  0
 10 37  1  0
 10 38  1  0
 11 39  1  0
 12 40  1  0
 16 41  1  0
 16 42  1  0
 16 43  1  0
 17 44  1  0
 17 45  1  0
 17 46  1  0
 19 47  1  0
 20 48  1  0
 21 49  1  0
 23 50  1  0
 23 51  1  0
M  END
>  <Energy>  (69) 
689.24676708358402

>  <compound_id>  (69) 
73144

>  <target_id>  (69) 
1

>  <reference_id>  (69) 
27

>  <inspiration_ids>  (69) 
[27, 35]

>  <energy_score>  (69) 
634.4667285504328

>  <distance_score>  (69) 
12.731947657855843

>  <path>  (69) 
/opt/xchem-fragalysis-2/maxwin/BulkDock/SCRATCH/511022/C73144-P27/C73144-P27.minimised.mol

>  <scratch_subdir>  (69) 
/opt/xchem-fragalysis-2/maxwin/BulkDock/SCRATCH/511022/C73144-P27

>  <fragmenstein_runtime>  (69) 
46.77989840507507

>  <fragmenstein_outcome>  (69) 
too moved

>  <fragmenstein_mode>  (69) 
expansion

>  <fragmenstein_error>  (69) 


$$$$
C73144-P35
     RDKit          3D

 51 52  0  0  0  0  0  0  0  0999 V2000
   10.8975   -9.7640   23.3260 C   0  0  0  0  0  0  0  0  0  0  0  0
   10.6589   -9.9419   21.8340 C   0  0  0  0  0  0  0  0  0  0  0  0
    9.7368   -8.8907   21.2156 C   0  0  0  0  0  0  0  0  0  0  0  0
   10.0144   -7.4631   21.7183 C   0  0  0  0  0  0  0  0  0  0  0  0
   11.4934   -7.0283   21.7879 C   0  0  0  0  0  0  0  0  0  0  0  0
    8.2443   -9.3032   21.4155 C   0  0  0  0  0  0  0  0  0  0  0  0
    7.7059   -9.0568   22.4580 O   0  0  0  0  0  0  0  0  0  0  0  0
    7.7695  -10.0430   20.2523 N   0  0  0  0  0  0  0  0  0  0  0  0
    6.5176  -10.8030   20.0301 C   0  0  0  0  0  0  0  0  0  0  0  0
    5.3157  -10.4774   20.9032 C   0  0  0  0  0  0  0  0  0  0  0  0
    4.9209  -12.2095   20.9118 C   0  0  0  0  0  0  0  0  0  0  0  0
    3.6237  -12.2920   22.3524 N   0  0  0  0  0  0  0  0  0  0  0  0
    2.9215  -13.7113   23.2316 C   0  0  0  0  0  0  0  0  0  0  0  0
    3.2433  -14.8709   23.1043 O   0  0  0  0  0  0  0  0  0  0  0  0
    1.3253  -13.4471   24.4283 C   0  0  0  0  0  0  0  0  0  0  0  0
    1.9016  -12.1159   24.1472 C   0  0  0  0  0  0  0  0  0  0  0  0
    1.4595  -13.3743   26.0961 C   0  0  0  0  0  0  0  0  0  0  0  0
   -0.6581  -14.1290   24.4051 C   0  0  0  0  0  0  0  0  0  0  0  0
   -1.9204  -14.0789   25.5327 C   0  0  0  0  0  0  0  0  0  0  0  0
   -3.2022  -14.4483   25.1712 N   0  0  0  0  0  0  0  0  0  0  0  0
   -2.8792  -15.1868   24.1393 C   0  0  0  0  0  0  0  0  0  0  0  0
   -1.5621  -15.0284   23.7633 N   0  0  0  0  0  0  0  0  0  0  0  0
    6.5587  -12.1507   20.7407 C   0  0  0  0  0  0  0  0  0  0  0  0
   11.4901   -8.8835   23.5774 H   0  0  0  0  0  0  0  0  0  0  0  0
    9.9531   -9.7128   23.8766 H   0  0  0  0  0  0  0  0  0  0  0  0
   11.4486  -10.6301   23.7097 H   0  0  0  0  0  0  0  0  0  0  0  0
   11.6291   -9.9556   21.3292 H   0  0  0  0  0  0  0  0  0  0  0  0
   10.2327  -10.9405   21.6719 H   0  0  0  0  0  0  0  0  0  0  0  0
    9.9280   -8.9097   20.1470 H   0  0  0  0  0  0  0  0  0  0  0  0
    9.5877   -7.3486   22.7235 H   0  0  0  0  0  0  0  0  0  0  0  0
    9.4407   -6.7822   21.0807 H   0  0  0  0  0  0  0  0  0  0  0  0
   12.2035   -7.8514   21.7063 H   0  0  0  0  0  0  0  0  0  0  0  0
   11.6871   -6.5457   22.7535 H   0  0  0  0  0  0  0  0  0  0  0  0
   11.7610   -6.2972   21.0215 H   0  0  0  0  0  0  0  0  0  0  0  0
    8.5242  -10.1248   19.5811 H   0  0  0  0  0  0  0  0  0  0  0  0
    6.2775  -10.8735   18.9632 H   0  0  0  0  0  0  0  0  0  0  0  0
    5.5220  -10.1080   21.9146 H   0  0  0  0  0  0  0  0  0  0  0  0
    4.6458   -9.7553   20.4254 H   0  0  0  0  0  0  0  0  0  0  0  0
    4.4829  -12.6860   20.0273 H   0  0  0  0  0  0  0  0  0  0  0  0
    3.2347  -11.4411   22.7167 H   0  0  0  0  0  0  0  0  0  0  0  0
    1.6615  -11.6430   25.0419 H   0  0  0  0  0  0  0  0  0  0  0  0
    2.9445  -12.1092   24.1632 H   0  0  0  0  0  0  0  0  0  0  0  0
    1.4705  -11.6778   23.2641 H   0  0  0  0  0  0  0  0  0  0  0  0
    1.0631  -14.1830   26.6071 H   0  0  0  0  0  0  0  0  0  0  0  0
    1.0278  -12.4833   26.5597 H   0  0  0  0  0  0  0  0  0  0  0  0
    2.4149  -13.6859   26.4971 H   0  0  0  0  0  0  0  0  0  0  0  0
   -1.9813  -14.5462   26.5165 H   0  0  0  0  0  0  0  0  0  0  0  0
   -4.0251  -14.5295   25.7550 H   0  0  0  0  0  0  0  0  0  0  0  0
   -3.6592  -15.7355   23.6269 H   0  0  0  0  0  0  0  0  0  0  0  0
    6.9957  -12.9230   20.1045 H   0  0  0  0  0  0  0  0  0  0  0  0
    7.1977  -11.9843   21.6094 H   0  0  0  0  0  0  0  0  0  0  0  0
  1  2  1  0
  2  3  1  0
  3  4  1  0
  4  5  1  0
  3  6  1  0
  6  7  2  0
  6  8  1  0
  8  9  1  0
  9 10  1  0
 10 11  1  0
 11 12  1  0
 12 13  1  0
 13 14  2  0
 13 15  1  0
 15 16  1  0
 15 17  1  0
 15 18  1  0
 18 19  2  0
 19 20  1  0
 20 21  1  0
 21 22  2  0
 11 23  1  0
 23  9  1  0
 22 18  1  0
  1 24  1  0
  1 25  1  0
  1 26  1  0
  2 27  1  0
  2 28  1  0
  3 29  1  0
  4 30  1  0
  4 31  1  0
  5 32  1  0
  5 33  1  0
  5 34  1  0
  8 35  1  0
  9 36  1  0
 10 37  1  0
 10 38  1  0
 11 39  1  0
 12 40  1  0
 16 41  1  0
 16 42  1  0
 16 43  1  0
 17 44  1  0
 17 45  1  0
 17 46  1  0
 19 47  1  0
 20 48  1  0
 21 49  1  0
 23 50  1  0
 23 51  1  0
M  END
>  <Energy>  (70) 
575.21710881746208

>  <compound_id>  (70) 
73144

>  <target_id>  (70) 
1

>  <reference_id>  (70) 
35

>  <inspiration_ids>  (70) 
[27, 35]

>  <energy_score>  (70) 
520.4370702843104

>  <distance_score>  (70) 
12.913524444068146

>  <path>  (70) 
/opt/xchem-fragalysis-2/maxwin/BulkDock/SCRATCH/511022/C73144-P35/C73144-P35.minimised.mol

>  <scratch_subdir>  (70) 
/opt/xchem-fragalysis-2/maxwin/BulkDock/SCRATCH/511022/C73144-P35

>  <fragmenstein_runtime>  (70) 
30.402864694595337

>  <fragmenstein_outcome>  (70) 
too moved

>  <fragmenstein_mode>  (70) 
expansion

>  <fragmenstein_error>  (70) 


$$$$
C73150-P27
     RDKit          3D

 54 55  0  0  0  0  0  0  0  0999 V2000
   14.2922   -4.0883   20.6512 C   0  0  0  0  0  0  0  0  0  0  0  0
   12.8188   -4.0750   20.2587 C   0  0  0  0  0  0  0  0  0  0  0  0
   12.4677   -4.9313   19.0139 C   0  0  0  0  0  0  0  0  0  0  0  0
   13.3753   -4.4758   17.8013 C   0  0  0  0  0  0  0  0  0  0  0  0
   13.2663   -3.0241   17.3508 C   0  0  0  0  0  0  0  0  0  0  0  0
   10.7816   -5.2314   18.2479 C   0  0  0  0  0  0  0  0  0  0  0  0
   10.7473   -4.7826   17.0840 O   0  0  0  0  0  0  0  0  0  0  0  0
    9.4616   -6.0649   19.2889 N   0  0  0  0  0  0  0  0  0  0  0  0
    7.3996   -6.4474   18.9742 C   0  0  0  0  0  0  0  0  0  0  0  0
    6.4955   -6.6033   17.6523 C   0  0  0  0  0  0  0  0  0  0  0  0
    5.9647   -8.0334   17.4880 C   0  0  0  0  0  0  0  0  0  0  0  0
    6.6293   -8.9429   18.4927 C   0  0  0  0  0  0  0  0  0  0  0  0
    6.8818   -8.0566   19.7169 C   0  0  0  0  0  0  0  0  0  0  0  0
    5.6689   -8.2639   20.6126 N   0  0  0  0  0  0  0  0  0  0  0  0
    5.0916   -9.5250   21.2141 C   0  0  0  0  0  0  0  0  0  0  0  0
    5.5005  -10.6582   21.1931 O   0  0  0  0  0  0  0  0  0  0  0  0
    3.6698   -9.3168   21.9950 C   0  0  0  0  0  0  0  0  0  0  0  0
    3.9407   -8.3875   23.1936 C   0  0  0  0  0  0  0  0  0  0  0  0
    2.6713   -8.6360   21.0346 C   0  0  0  0  0  0  0  0  0  0  0  0
    2.9357  -10.6757   22.5393 C   0  0  0  0  0  0  0  0  0  0  0  0
    2.4134  -11.7647   21.8462 C   0  0  0  0  0  0  0  0  0  0  0  0
    1.6700  -12.4969   22.7446 N   0  0  0  0  0  0  0  0  0  0  0  0
    1.7721  -11.8843   23.9567 C   0  0  0  0  0  0  0  0  0  0  0  0
    2.5045  -10.7928   23.8715 N   0  0  0  0  0  0  0  0  0  0  0  0
   14.6623   -5.1127   20.7581 H   0  0  0  0  0  0  0  0  0  0  0  0
   14.9177   -3.5636   19.9238 H   0  0  0  0  0  0  0  0  0  0  0  0
   14.4236   -3.5818   21.6134 H   0  0  0  0  0  0  0  0  0  0  0  0
   12.5819   -3.0366   20.0956 H   0  0  0  0  0  0  0  0  0  0  0  0
   12.2354   -4.4202   21.1160 H   0  0  0  0  0  0  0  0  0  0  0  0
   12.8222   -5.8756   19.3730 H   0  0  0  0  0  0  0  0  0  0  0  0
   14.4257   -4.6757   18.0407 H   0  0  0  0  0  0  0  0  0  0  0  0
   13.1505   -5.0916   16.9254 H   0  0  0  0  0  0  0  0  0  0  0  0
   12.2462   -2.7453   17.0845 H   0  0  0  0  0  0  0  0  0  0  0  0
   13.8872   -2.8704   16.4613 H   0  0  0  0  0  0  0  0  0  0  0  0
   13.6358   -2.3398   18.1177 H   0  0  0  0  0  0  0  0  0  0  0  0
    9.7992   -6.2217   20.1925 H   0  0  0  0  0  0  0  0  0  0  0  0
    6.8615   -5.6772   19.5916 H   0  0  0  0  0  0  0  0  0  0  0  0
    6.8735   -6.2663   16.6906 H   0  0  0  0  0  0  0  0  0  0  0  0
    5.5946   -6.0040   17.8312 H   0  0  0  0  0  0  0  0  0  0  0  0
    6.1146   -8.4002   16.4664 H   0  0  0  0  0  0  0  0  0  0  0  0
    4.8795   -8.0344   17.6538 H   0  0  0  0  0  0  0  0  0  0  0  0
    5.9878   -9.8072   18.6951 H   0  0  0  0  0  0  0  0  0  0  0  0
    7.5579   -9.3756   18.1129 H   0  0  0  0  0  0  0  0  0  0  0  0
    7.7181   -8.5167   20.2512 H   0  0  0  0  0  0  0  0  0  0  0  0
    5.0203   -7.5006   20.7532 H   0  0  0  0  0  0  0  0  0  0  0  0
    3.0196   -8.1602   23.7421 H   0  0  0  0  0  0  0  0  0  0  0  0
    4.6419   -8.8552   23.8945 H   0  0  0  0  0  0  0  0  0  0  0  0
    4.3798   -7.4334   22.8840 H   0  0  0  0  0  0  0  0  0  0  0  0
    1.6747   -8.5619   21.4856 H   0  0  0  0  0  0  0  0  0  0  0  0
    2.9769   -7.6212   20.7623 H   0  0  0  0  0  0  0  0  0  0  0  0
    2.5746   -9.2086   20.1049 H   0  0  0  0  0  0  0  0  0  0  0  0
    2.4644  -12.0351   20.8011 H   0  0  0  0  0  0  0  0  0  0  0  0
    1.1021  -13.3036   22.5349 H   0  0  0  0  0  0  0  0  0  0  0  0
    1.2872  -12.2544   24.8499 H   0  0  0  0  0  0  0  0  0  0  0  0
  1  2  1  0
  2  3  1  0
  3  4  1  0
  4  5  1  0
  3  6  1  0
  6  7  2  0
  6  8  1  0
  8  9  1  0
  9 10  1  0
 10 11  1  0
 11 12  1  0
 12 13  1  0
 13 14  1  0
 14 15  1  0
 15 16  2  0
 15 17  1  0
 17 18  1  0
 17 19  1  0
 17 20  1  0
 20 21  2  0
 21 22  1  0
 22 23  1  0
 23 24  2  0
 13  9  1  0
 24 20  1  0
  1 25  1  0
  1 26  1  0
  1 27  1  0
  2 28  1  0
  2 29  1  0
  3 30  1  0
  4 31  1  0
  4 32  1  0
  5 33  1  0
  5 34  1  0
  5 35  1  0
  8 36  1  0
  9 37  1  0
 10 38  1  0
 10 39  1  0
 11 40  1  0
 11 41  1  0
 12 42  1  0
 12 43  1  0
 13 44  1  0
 14 45  1  0
 18 46  1  0
 18 47  1  0
 18 48  1  0
 19 49  1  0
 19 50  1  0
 19 51  1  0
 21 52  1  0
 22 53  1  0
 23 54  1  0
M  END
>  <Energy>  (71) 
337.20609817058318

>  <compound_id>  (71) 
73150

>  <target_id>  (71) 
1

>  <reference_id>  (71) 
27

>  <inspiration_ids>  (71) 
[27, 35]

>  <energy_score>  (71) 
264.47077285138175

>  <distance_score>  (71) 
13.216022067520333

>  <path>  (71) 
/opt/xchem-fragalysis-2/maxwin/BulkDock/SCRATCH/511022/C73150-P27/C73150-P27.minimised.mol

>  <scratch_subdir>  (71) 
/opt/xchem-fragalysis-2/maxwin/BulkDock/SCRATCH/511022/C73150-P27

>  <fragmenstein_runtime>  (71) 
39.35306453704834

>  <fragmenstein_outcome>  (71) 
too moved

>  <fragmenstein_mode>  (71) 
expansion

>  <fragmenstein_error>  (71) 


$$$$
C73150-P35
     RDKit          3D

 54 55  0  0  0  0  0  0  0  0999 V2000
    6.3791   -9.1769   20.7971 C   0  0  0  0  0  0  0  0  0  0  0  0
    6.1883  -10.4976   21.5526 C   0  0  0  0  0  0  0  0  0  0  0  0
    6.0348  -11.8305   20.7326 C   0  0  0  0  0  0  0  0  0  0  0  0
    7.1918  -11.9322   19.6779 C   0  0  0  0  0  0  0  0  0  0  0  0
    7.0781  -11.0635   18.4171 C   0  0  0  0  0  0  0  0  0  0  0  0
    6.0474  -13.0947   21.7695 C   0  0  0  0  0  0  0  0  0  0  0  0
    7.0952  -13.6700   21.9195 O   0  0  0  0  0  0  0  0  0  0  0  0
    4.7363  -13.2721   22.4557 N   0  0  0  0  0  0  0  0  0  0  0  0
    4.3062  -14.2139   23.7038 C   0  0  0  0  0  0  0  0  0  0  0  0
    4.9986  -13.3158   24.7586 C   0  0  0  0  0  0  0  0  0  0  0  0
    6.4127  -13.8589   24.7598 C   0  0  0  0  0  0  0  0  0  0  0  0
    6.3157  -15.4152   24.5758 C   0  0  0  0  0  0  0  0  0  0  0  0
    4.6263  -15.9516   24.4992 C   0  0  0  0  0  0  0  0  0  0  0  0
    3.2720  -17.4268   24.9232 N   0  0  0  0  0  0  0  0  0  0  0  0
    2.1905  -17.6809   26.4021 C   0  0  0  0  0  0  0  0  0  0  0  0
    2.2391  -17.0410   27.4435 O   0  0  0  0  0  0  0  0  0  0  0  0
    0.5059  -19.0123   26.2333 C   0  0  0  0  0  0  0  0  0  0  0  0
   -0.9604  -18.2572   26.4729 C   0  0  0  0  0  0  0  0  0  0  0  0
    0.8830  -19.1237   24.6181 C   0  0  0  0  0  0  0  0  0  0  0  0
   -0.2170  -20.7654   27.3402 C   0  0  0  0  0  0  0  0  0  0  0  0
    0.7759  -22.2331   27.4565 C   0  0  0  0  0  0  0  0  0  0  0  0
    0.1144  -23.3511   27.7006 N   0  0  0  0  0  0  0  0  0  0  0  0
   -0.9733  -22.7160   28.1940 C   0  0  0  0  0  0  0  0  0  0  0  0
   -0.9764  -21.2709   28.3613 N   0  0  0  0  0  0  0  0  0  0  0  0
    6.2148   -8.3375   21.4808 H   0  0  0  0  0  0  0  0  0  0  0  0
    7.3978   -9.0886   20.4162 H   0  0  0  0  0  0  0  0  0  0  0  0
    5.6616   -9.0837   19.9772 H   0  0  0  0  0  0  0  0  0  0  0  0
    7.0228  -10.6121   22.2570 H   0  0  0  0  0  0  0  0  0  0  0  0
    5.2920  -10.3979   22.1787 H   0  0  0  0  0  0  0  0  0  0  0  0
    5.0704  -11.8436   20.2113 H   0  0  0  0  0  0  0  0  0  0  0  0
    7.2257  -12.9765   19.3394 H   0  0  0  0  0  0  0  0  0  0  0  0
    8.1581  -11.7448   20.1623 H   0  0  0  0  0  0  0  0  0  0  0  0
    6.0504  -11.0510   18.0421 H   0  0  0  0  0  0  0  0  0  0  0  0
    7.4135  -10.0388   18.5705 H   0  0  0  0  0  0  0  0  0  0  0  0
    7.7169  -11.4808   17.6308 H   0  0  0  0  0  0  0  0  0  0  0  0
    4.0941  -12.5590   22.1349 H   0  0  0  0  0  0  0  0  0  0  0  0
    3.2466  -14.0501   23.6343 H   0  0  0  0  0  0  0  0  0  0  0  0
    4.5115  -13.4033   25.7349 H   0  0  0  0  0  0  0  0  0  0  0  0
    4.9891  -12.2436   24.5266 H   0  0  0  0  0  0  0  0  0  0  0  0
    7.0611  -13.4033   24.0212 H   0  0  0  0  0  0  0  0  0  0  0  0
    6.9344  -13.5724   25.6801 H   0  0  0  0  0  0  0  0  0  0  0  0
    6.8578  -15.6906   25.4524 H   0  0  0  0  0  0  0  0  0  0  0  0
    6.8961  -15.7389   23.7105 H   0  0  0  0  0  0  0  0  0  0  0  0
    4.2950  -15.3763   25.4263 H   0  0  0  0  0  0  0  0  0  0  0  0
    3.0827  -18.1361   24.2387 H   0  0  0  0  0  0  0  0  0  0  0  0
   -1.5376  -17.7949   25.7018 H   0  0  0  0  0  0  0  0  0  0  0  0
   -0.8777  -17.5220   27.2183 H   0  0  0  0  0  0  0  0  0  0  0  0
   -1.7152  -18.9995   26.6938 H   0  0  0  0  0  0  0  0  0  0  0  0
    0.3766  -19.6197   23.7305 H   0  0  0  0  0  0  0  0  0  0  0  0
    1.9364  -19.0655   24.4639 H   0  0  0  0  0  0  0  0  0  0  0  0
    0.6628  -18.2010   24.4340 H   0  0  0  0  0  0  0  0  0  0  0  0
    1.8808  -22.2848   27.4056 H   0  0  0  0  0  0  0  0  0  0  0  0
    0.3121  -24.3281   27.5476 H   0  0  0  0  0  0  0  0  0  0  0  0
   -1.5202  -23.4628   28.6504 H   0  0  0  0  0  0  0  0  0  0  0  0
  1  2  1  0
  2  3  1  0
  3  4  1  0
  4  5  1  0
  3  6  1  0
  6  7  2  0
  6  8  1  0
  8  9  1  0
  9 10  1  0
 10 11  1  0
 11 12  1  0
 12 13  1  0
 13 14  1  0
 14 15  1  0
 15 16  2  0
 15 17  1  0
 17 18  1  0
 17 19  1  0
 17 20  1  0
 20 21  2  0
 21 22  1  0
 22 23  1  0
 23 24  2  0
 13  9  1  0
 24 20  1  0
  1 25  1  0
  1 26  1  0
  1 27  1  0
  2 28  1  0
  2 29  1  0
  3 30  1  0
  4 31  1  0
  4 32  1  0
  5 33  1  0
  5 34  1  0
  5 35  1  0
  8 36  1  0
  9 37  1  0
 10 38  1  0
 10 39  1  0
 11 40  1  0
 11 41  1  0
 12 42  1  0
 12 43  1  0
 13 44  1  0
 14 45  1  0
 18 46  1  0
 18 47  1  0
 18 48  1  0
 19 49  1  0
 19 50  1  0
 19 51  1  0
 21 52  1  0
 22 53  1  0
 23 54  1  0
M  END
>  <Energy>  (72) 
818.50820731341446

>  <compound_id>  (72) 
73150

>  <target_id>  (72) 
1

>  <reference_id>  (72) 
35

>  <inspiration_ids>  (72) 
[27, 35]

>  <energy_score>  (72) 
745.7728819942181

>  <distance_score>  (72) 
13.447466117627108

>  <path>  (72) 
/opt/xchem-fragalysis-2/maxwin/BulkDock/SCRATCH/511022/C73150-P35/C73150-P35.minimised.mol

>  <scratch_subdir>  (72) 
/opt/xchem-fragalysis-2/maxwin/BulkDock/SCRATCH/511022/C73150-P35

>  <fragmenstein_runtime>  (72) 
58.32150173187256

>  <fragmenstein_outcome>  (72) 
too moved

>  <fragmenstein_mode>  (72) 
expansion

>  <fragmenstein_error>  (72) 


$$$$
C76312-P27
     RDKit          3D

 57 58  0  0  0  0  0  0  0  0999 V2000
   12.1296   -8.6042   21.9945 C   0  0  0  0  0  0  0  0  0  0  0  0
   10.8800   -9.4702   22.1366 C   0  0  0  0  0  0  0  0  0  0  0  0
   10.2147  -10.0177   20.8323 C   0  0  0  0  0  0  0  0  0  0  0  0
   11.1196  -11.1066   20.2163 C   0  0  0  0  0  0  0  0  0  0  0  0
   10.7697  -11.6252   18.8284 C   0  0  0  0  0  0  0  0  0  0  0  0
    8.8085  -10.6230   21.1666 C   0  0  0  0  0  0  0  0  0  0  0  0
    8.6289  -11.0650   22.2654 O   0  0  0  0  0  0  0  0  0  0  0  0
    7.9498  -10.6070   20.0067 N   0  0  0  0  0  0  0  0  0  0  0  0
    6.6383  -11.2054   19.7794 C   0  0  0  0  0  0  0  0  0  0  0  0
    5.4812  -10.3619   20.3140 C   0  0  0  0  0  0  0  0  0  0  0  0
    4.1335  -11.1160   20.1925 C   0  0  0  0  0  0  0  0  0  0  0  0
    3.8085  -11.6713   18.7914 C   0  0  0  0  0  0  0  0  0  0  0  0
    2.6515  -12.6192   18.7383 N   0  0  0  0  0  0  0  0  0  0  0  0
    1.3070  -12.5340   19.3268 C   0  0  0  0  0  0  0  0  0  0  0  0
    0.8265  -11.7120   20.0689 O   0  0  0  0  0  0  0  0  0  0  0  0
    0.2661  -13.7006   18.7879 C   0  0  0  0  0  0  0  0  0  0  0  0
    0.8370  -14.6034   17.6737 C   0  0  0  0  0  0  0  0  0  0  0  0
   -0.8512  -12.8720   18.0748 C   0  0  0  0  0  0  0  0  0  0  0  0
   -0.4711  -14.5855   19.8836 C   0  0  0  0  0  0  0  0  0  0  0  0
   -1.3773  -14.2175   20.8704 C   0  0  0  0  0  0  0  0  0  0  0  0
   -1.9552  -15.3717   21.3332 N   0  0  0  0  0  0  0  0  0  0  0  0
   -1.3765  -16.4113   20.6708 C   0  0  0  0  0  0  0  0  0  0  0  0
   -0.4888  -15.9800   19.8010 N   0  0  0  0  0  0  0  0  0  0  0  0
    5.0712  -12.3060   18.1482 C   0  0  0  0  0  0  0  0  0  0  0  0
    6.3717  -11.4993   18.3070 C   0  0  0  0  0  0  0  0  0  0  0  0
   11.9805   -7.7737   21.3122 H   0  0  0  0  0  0  0  0  0  0  0  0
   12.9841   -9.1975   21.6566 H   0  0  0  0  0  0  0  0  0  0  0  0
   12.4001   -8.1881   22.9711 H   0  0  0  0  0  0  0  0  0  0  0  0
   10.1443   -8.9113   22.7196 H   0  0  0  0  0  0  0  0  0  0  0  0
   11.1423  -10.3229   22.7785 H   0  0  0  0  0  0  0  0  0  0  0  0
   10.0681   -9.1774   20.1546 H   0  0  0  0  0  0  0  0  0  0  0  0
   11.0975  -11.9763   20.8887 H   0  0  0  0  0  0  0  0  0  0  0  0
   12.1674  -10.7954   20.2030 H   0  0  0  0  0  0  0  0  0  0  0  0
   10.9030  -10.8946   18.0397 H   0  0  0  0  0  0  0  0  0  0  0  0
   11.4396  -12.4586   18.5845 H   0  0  0  0  0  0  0  0  0  0  0  0
    9.7545  -12.0243   18.7801 H   0  0  0  0  0  0  0  0  0  0  0  0
    8.4624  -10.2216   19.2209 H   0  0  0  0  0  0  0  0  0  0  0  0
    6.6621  -12.1518   20.3322 H   0  0  0  0  0  0  0  0  0  0  0  0
    5.6528  -10.1045   21.3660 H   0  0  0  0  0  0  0  0  0  0  0  0
    5.4202   -9.4120   19.7678 H   0  0  0  0  0  0  0  0  0  0  0  0
    4.1216  -11.9526   20.8952 H   0  0  0  0  0  0  0  0  0  0  0  0
    3.3255  -10.4484   20.5154 H   0  0  0  0  0  0  0  0  0  0  0  0
    3.5056  -10.8216   18.1665 H   0  0  0  0  0  0  0  0  0  0  0  0
    2.6821  -13.3969   18.0981 H   0  0  0  0  0  0  0  0  0  0  0  0
    1.1632  -14.0164   16.8065 H   0  0  0  0  0  0  0  0  0  0  0  0
    1.6973  -15.1770   18.0162 H   0  0  0  0  0  0  0  0  0  0  0  0
    0.0907  -15.3192   17.3084 H   0  0  0  0  0  0  0  0  0  0  0  0
   -0.4294  -12.2424   17.2822 H   0  0  0  0  0  0  0  0  0  0  0  0
   -1.6086  -13.5248   17.6242 H   0  0  0  0  0  0  0  0  0  0  0  0
   -1.3704  -12.2044   18.7724 H   0  0  0  0  0  0  0  0  0  0  0  0
   -1.6897  -13.2450   21.2232 H   0  0  0  0  0  0  0  0  0  0  0  0
   -2.6882  -15.4354   22.0245 H   0  0  0  0  0  0  0  0  0  0  0  0
   -1.6347  -17.4464   20.8524 H   0  0  0  0  0  0  0  0  0  0  0  0
    5.2292  -13.3006   18.5843 H   0  0  0  0  0  0  0  0  0  0  0  0
    4.8819  -12.4754   17.0807 H   0  0  0  0  0  0  0  0  0  0  0  0
    7.2031  -12.0715   17.8781 H   0  0  0  0  0  0  0  0  0  0  0  0
    6.3003  -10.5687   17.7327 H   0  0  0  0  0  0  0  0  0  0  0  0
  1  2  1  0
  2  3  1  0
  3  4  1  0
  4  5  1  0
  3  6  1  0
  6  7  2  0
  6  8  1  0
  8  9  1  0
  9 10  1  0
 10 11  1  0
 11 12  1  0
 12 13  1  0
 13 14  1  0
 14 15  2  0
 14 16  1  0
 16 17  1  0
 16 18  1  0
 16 19  1  0
 19 20  2  0
 20 21  1  0
 21 22  1  0
 22 23  2  0
 12 24  1  0
 24 25  1  0
 25  9  1  0
 23 19  1  0
  1 26  1  0
  1 27  1  0
  1 28  1  0
  2 29  1  0
  2 30  1  0
  3 31  1  0
  4 32  1  0
  4 33  1  0
  5 34  1  0
  5 35  1  0
  5 36  1  0
  8 37  1  0
  9 38  1  0
 10 39  1  0
 10 40  1  0
 11 41  1  0
 11 42  1  0
 12 43  1  0
 13 44  1  0
 17 45  1  0
 17 46  1  0
 17 47  1  0
 18 48  1  0
 18 49  1  0
 18 50  1  0
 20 51  1  0
 21 52  1  0
 22 53  1  0
 24 54  1  0
 24 55  1  0
 25 56  1  0
 25 57  1  0
M  END
>  <Energy>  (73) 
41.049639053895369

>  <compound_id>  (73) 
76312

>  <target_id>  (73) 
1

>  <reference_id>  (73) 
27

>  <inspiration_ids>  (73) 
[27, 35]

>  <energy_score>  (73) 
-5.6126819003737864

>  <distance_score>  (73) 
13.755437387391677

>  <path>  (73) 
/opt/xchem-fragalysis-2/maxwin/BulkDock/SCRATCH/511022/C76312-P27/C76312-P27.minimised.mol

>  <scratch_subdir>  (73) 
/opt/xchem-fragalysis-2/maxwin/BulkDock/SCRATCH/511022/C76312-P27

>  <fragmenstein_runtime>  (73) 
50.976019859313965

>  <fragmenstein_outcome>  (73) 
too moved

>  <fragmenstein_mode>  (73) 
expansion

>  <fragmenstein_error>  (73) 


$$$$
C76312-P35
     RDKit          3D

 57 58  0  0  0  0  0  0  0  0999 V2000
   14.7420   -7.6103   23.5497 C   0  0  0  0  0  0  0  0  0  0  0  0
   14.1103   -8.9487   23.9801 C   0  0  0  0  0  0  0  0  0  0  0  0
   12.6531   -8.8335   24.4720 C   0  0  0  0  0  0  0  0  0  0  0  0
   11.7692   -8.0745   23.4737 C   0  0  0  0  0  0  0  0  0  0  0  0
   11.9710   -8.4012   21.9997 C   0  0  0  0  0  0  0  0  0  0  0  0
   11.9221  -10.1314   25.0186 C   0  0  0  0  0  0  0  0  0  0  0  0
   11.7522  -10.2322   26.1997 O   0  0  0  0  0  0  0  0  0  0  0  0
   11.4870  -10.9659   23.9361 N   0  0  0  0  0  0  0  0  0  0  0  0
   10.6264  -12.1401   23.9187 C   0  0  0  0  0  0  0  0  0  0  0  0
    9.4852  -11.9237   22.9542 C   0  0  0  0  0  0  0  0  0  0  0  0
    9.0940  -13.3244   22.4587 C   0  0  0  0  0  0  0  0  0  0  0  0
    8.3497  -15.0467   23.3809 C   0  0  0  0  0  0  0  0  0  0  0  0
    6.8093  -16.5691   23.7986 N   0  0  0  0  0  0  0  0  0  0  0  0
    5.9511  -18.1087   22.7173 C   0  0  0  0  0  0  0  0  0  0  0  0
    6.2363  -18.2580   21.4851 O   0  0  0  0  0  0  0  0  0  0  0  0
    4.5586  -19.7406   23.7819 C   0  0  0  0  0  0  0  0  0  0  0  0
    3.2701  -18.6914   24.6467 C   0  0  0  0  0  0  0  0  0  0  0  0
    5.6741  -20.9060   25.1217 C   0  0  0  0  0  0  0  0  0  0  0  0
    4.1498  -20.8527   25.3953 C   0  0  0  0  0  0  0  0  0  0  0  0
    3.7035  -22.3863   25.5662 C   0  0  0  0  0  0  0  0  0  0  0  0
    3.8771  -22.8950   26.8063 N   0  0  0  0  0  0  0  0  0  0  0  0
    4.5287  -21.9528   27.4872 C   0  0  0  0  0  0  0  0  0  0  0  0
    4.6123  -20.7188   26.9062 N   0  0  0  0  0  0  0  0  0  0  0  0
    8.6493  -13.6855   24.8220 C   0  0  0  0  0  0  0  0  0  0  0  0
    9.9039  -12.6675   25.1322 C   0  0  0  0  0  0  0  0  0  0  0  0
   14.3196   -7.2213   22.6228 H   0  0  0  0  0  0  0  0  0  0  0  0
   15.8149   -7.7520   23.3822 H   0  0  0  0  0  0  0  0  0  0  0  0
   14.6213   -6.8561   24.3337 H   0  0  0  0  0  0  0  0  0  0  0  0
   14.7086   -9.3596   24.8037 H   0  0  0  0  0  0  0  0  0  0  0  0
   14.2007   -9.6807   23.1707 H   0  0  0  0  0  0  0  0  0  0  0  0
   12.6938   -8.1894   25.3657 H   0  0  0  0  0  0  0  0  0  0  0  0
   11.9723   -7.0093   23.6323 H   0  0  0  0  0  0  0  0  0  0  0  0
   10.7182   -8.2411   23.7380 H   0  0  0  0  0  0  0  0  0  0  0  0
   12.5686   -9.2960   21.8209 H   0  0  0  0  0  0  0  0  0  0  0  0
   11.0066   -8.5633   21.5115 H   0  0  0  0  0  0  0  0  0  0  0  0
   12.4751   -7.5689   21.5033 H   0  0  0  0  0  0  0  0  0  0  0  0
   11.8841  -10.6215   23.0759 H   0  0  0  0  0  0  0  0  0  0  0  0
   11.3106  -12.9260   23.5764 H   0  0  0  0  0  0  0  0  0  0  0  0
    9.8377  -11.3470   22.0861 H   0  0  0  0  0  0  0  0  0  0  0  0
    8.6467  -11.3404   23.3516 H   0  0  0  0  0  0  0  0  0  0  0  0
   10.1486  -13.5373   22.0793 H   0  0  0  0  0  0  0  0  0  0  0  0
    8.6178  -13.1245   21.4468 H   0  0  0  0  0  0  0  0  0  0  0  0
    9.6324  -14.7638   23.0457 H   0  0  0  0  0  0  0  0  0  0  0  0
    6.4033  -16.5481   24.7209 H   0  0  0  0  0  0  0  0  0  0  0  0
    3.5009  -18.5449   25.6866 H   0  0  0  0  0  0  0  0  0  0  0  0
    2.3209  -19.0170   24.4257 H   0  0  0  0  0  0  0  0  0  0  0  0
    3.2264  -17.6961   24.2313 H   0  0  0  0  0  0  0  0  0  0  0  0
    5.7089  -21.9734   25.5636 H   0  0  0  0  0  0  0  0  0  0  0  0
    6.3123  -21.5946   24.5584 H   0  0  0  0  0  0  0  0  0  0  0  0
    6.2172  -20.4160   25.8872 H   0  0  0  0  0  0  0  0  0  0  0  0
    3.6151  -23.1718   24.8440 H   0  0  0  0  0  0  0  0  0  0  0  0
    3.8257  -23.8711   27.0592 H   0  0  0  0  0  0  0  0  0  0  0  0
    4.9153  -22.2151   28.4609 H   0  0  0  0  0  0  0  0  0  0  0  0
    7.9567  -12.8731   24.5189 H   0  0  0  0  0  0  0  0  0  0  0  0
    8.1433  -13.8967   25.7635 H   0  0  0  0  0  0  0  0  0  0  0  0
    9.4434  -11.8128   25.6540 H   0  0  0  0  0  0  0  0  0  0  0  0
   10.6354  -13.0047   25.8574 H   0  0  0  0  0  0  0  0  0  0  0  0
  1  2  1  0
  2  3  1  0
  3  4  1  0
  4  5  1  0
  3  6  1  0
  6  7  2  0
  6  8  1  0
  8  9  1  0
  9 10  1  0
 10 11  1  0
 11 12  1  0
 12 13  1  0
 13 14  1  0
 14 15  2  0
 14 16  1  0
 16 17  1  0
 16 18  1  0
 16 19  1  0
 19 20  2  0
 20 21  1  0
 21 22  1  0
 22 23  2  0
 12 24  1  0
 24 25  1  0
 25  9  1  0
 23 19  1  0
  1 26  1  0
  1 27  1  0
  1 28  1  0
  2 29  1  0
  2 30  1  0
  3 31  1  0
  4 32  1  0
  4 33  1  0
  5 34  1  0
  5 35  1  0
  5 36  1  0
  8 37  1  0
  9 38  1  0
 10 39  1  0
 10 40  1  0
 11 41  1  0
 11 42  1  0
 12 43  1  0
 13 44  1  0
 17 45  1  0
 17 46  1  0
 17 47  1  0
 18 48  1  0
 18 49  1  0
 18 50  1  0
 20 51  1  0
 21 52  1  0
 22 53  1  0
 24 54  1  0
 24 55  1  0
 25 56  1  0
 25 57  1  0
M  END
>  <Energy>  (74) 
1494.2621202035339

>  <compound_id>  (74) 
76312

>  <target_id>  (74) 
1

>  <reference_id>  (74) 
35

>  <inspiration_ids>  (74) 
[27, 35]

>  <energy_score>  (74) 
1447.5997992492617

>  <distance_score>  (74) 
12.78703934870124

>  <path>  (74) 
/opt/xchem-fragalysis-2/maxwin/BulkDock/SCRATCH/511022/C76312-P35/C76312-P35.minimised.mol

>  <scratch_subdir>  (74) 
/opt/xchem-fragalysis-2/maxwin/BulkDock/SCRATCH/511022/C76312-P35

>  <fragmenstein_runtime>  (74) 
26.044837951660156

>  <fragmenstein_outcome>  (74) 
too moved

>  <fragmenstein_mode>  (74) 
expansion

>  <fragmenstein_error>  (74) 


$$$$
C23869-P27
     RDKit          3D

 57 58  0  0  0  0  0  0  0  0999 V2000
   13.2355   -7.7510   22.6315 C   0  0  0  0  0  0  0  0  0  0  0  0
   11.9594   -8.4969   23.0216 C   0  0  0  0  0  0  0  0  0  0  0  0
   11.4698   -8.5077   24.5175 C   0  0  0  0  0  0  0  0  0  0  0  0
   11.3213   -7.1485   25.2388 C   0  0  0  0  0  0  0  0  0  0  0  0
   12.2400   -5.9866   24.8759 C   0  0  0  0  0  0  0  0  0  0  0  0
   10.1007   -9.3451   24.6181 C   0  0  0  0  0  0  0  0  0  0  0  0
    9.5125   -9.5557   23.5924 O   0  0  0  0  0  0  0  0  0  0  0  0
    9.8373   -9.8059   25.9738 N   0  0  0  0  0  0  0  0  0  0  0  0
    8.8233  -10.7563   26.5002 C   0  0  0  0  0  0  0  0  0  0  0  0
    7.9971  -10.2720   27.7064 C   0  0  0  0  0  0  0  0  0  0  0  0
    7.1002  -11.4291   28.3162 C   0  0  0  0  0  0  0  0  0  0  0  0
    6.0610  -12.0826   27.2931 C   0  0  0  0  0  0  0  0  0  0  0  0
    4.9781  -13.3838   27.8279 N   0  0  0  0  0  0  0  0  0  0  0  0
    4.0831  -14.6410   26.9099 C   0  0  0  0  0  0  0  0  0  0  0  0
    4.0748  -14.6596   25.7041 O   0  0  0  0  0  0  0  0  0  0  0  0
    3.1175  -16.2936   27.6414 C   0  0  0  0  0  0  0  0  0  0  0  0
    2.9555  -17.5217   26.6570 C   0  0  0  0  0  0  0  0  0  0  0  0
    1.3017  -16.7701   28.2054 C   0  0  0  0  0  0  0  0  0  0  0  0
   -0.4088  -17.5163   27.5174 C   0  0  0  0  0  0  0  0  0  0  0  0
   -1.8858  -16.9376   27.4264 C   0  0  0  0  0  0  0  0  0  0  0  0
   -2.8949  -17.7594   27.0556 N   0  0  0  0  0  0  0  0  0  0  0  0
   -2.2111  -18.7818   26.6885 C   0  0  0  0  0  0  0  0  0  0  0  0
   -0.8596  -18.4962   26.6587 N   0  0  0  0  0  0  0  0  0  0  0  0
    6.9179  -12.3787   26.0557 C   0  0  0  0  0  0  0  0  0  0  0  0
    7.8231  -11.2676   25.4709 C   0  0  0  0  0  0  0  0  0  0  0  0
   13.0766   -6.6864   22.4639 H   0  0  0  0  0  0  0  0  0  0  0  0
   13.6185   -8.1549   21.6881 H   0  0  0  0  0  0  0  0  0  0  0  0
   14.0162   -7.8919   23.3846 H   0  0  0  0  0  0  0  0  0  0  0  0
   12.1396   -9.5531   22.7694 H   0  0  0  0  0  0  0  0  0  0  0  0
   11.1535   -8.2116   22.3462 H   0  0  0  0  0  0  0  0  0  0  0  0
   12.2227   -9.0904   25.0677 H   0  0  0  0  0  0  0  0  0  0  0  0
   11.4956   -7.3499   26.3063 H   0  0  0  0  0  0  0  0  0  0  0  0
   10.2777   -6.8180   25.2252 H   0  0  0  0  0  0  0  0  0  0  0  0
   12.0543   -5.5719   23.8885 H   0  0  0  0  0  0  0  0  0  0  0  0
   12.0780   -5.1683   25.5872 H   0  0  0  0  0  0  0  0  0  0  0  0
   13.2912   -6.2754   24.9627 H   0  0  0  0  0  0  0  0  0  0  0  0
   10.5904   -9.4987   26.5802 H   0  0  0  0  0  0  0  0  0  0  0  0
    9.4303  -11.6070   26.8341 H   0  0  0  0  0  0  0  0  0  0  0  0
    8.6701   -9.9049   28.4905 H   0  0  0  0  0  0  0  0  0  0  0  0
    7.3560   -9.4300   27.4182 H   0  0  0  0  0  0  0  0  0  0  0  0
    7.8236  -12.1584   28.6882 H   0  0  0  0  0  0  0  0  0  0  0  0
    6.5491  -11.0450   29.1823 H   0  0  0  0  0  0  0  0  0  0  0  0
    5.4541  -11.2037   27.1351 H   0  0  0  0  0  0  0  0  0  0  0  0
    4.9269  -13.5991   28.7986 H   0  0  0  0  0  0  0  0  0  0  0  0
    3.8088  -16.7278   28.3512 H   0  0  0  0  0  0  0  0  0  0  0  0
    1.9646  -17.8280   26.7275 H   0  0  0  0  0  0  0  0  0  0  0  0
    3.2785  -18.4833   27.0171 H   0  0  0  0  0  0  0  0  0  0  0  0
    3.2898  -17.5996   25.6289 H   0  0  0  0  0  0  0  0  0  0  0  0
    1.1538  -16.7968   29.2969 H   0  0  0  0  0  0  0  0  0  0  0  0
    1.3284  -15.7394   28.0207 H   0  0  0  0  0  0  0  0  0  0  0  0
   -2.1625  -15.9028   27.6606 H   0  0  0  0  0  0  0  0  0  0  0  0
   -2.6527  -19.6671   26.2637 H   0  0  0  0  0  0  0  0  0  0  0  0
   -0.2491  -18.9444   26.0088 H   0  0  0  0  0  0  0  0  0  0  0  0
    6.2169  -12.6051   25.2838 H   0  0  0  0  0  0  0  0  0  0  0  0
    7.5517  -13.2447   26.2628 H   0  0  0  0  0  0  0  0  0  0  0  0
    7.2031  -10.4420   25.1010 H   0  0  0  0  0  0  0  0  0  0  0  0
    8.3497  -11.6825   24.6032 H   0  0  0  0  0  0  0  0  0  0  0  0
  1  2  1  0
  2  3  1  0
  3  4  1  0
  4  5  1  0
  3  6  1  0
  6  7  2  0
  6  8  1  0
  8  9  1  0
  9 10  1  0
 10 11  1  0
 11 12  1  0
 12 13  1  0
 13 14  1  0
 14 15  2  0
 14 16  1  0
 16 17  1  0
 16 18  1  0
 18 19  1  0
 19 20  2  0
 20 21  1  0
 21 22  2  0
 22 23  1  0
 12 24  1  0
 24 25  1  0
 25  9  1  0
 23 19  1  0
  1 26  1  0
  1 27  1  0
  1 28  1  0
  2 29  1  0
  2 30  1  0
  3 31  1  0
  4 32  1  0
  4 33  1  0
  5 34  1  0
  5 35  1  0
  5 36  1  0
  8 37  1  0
  9 38  1  0
 10 39  1  0
 10 40  1  0
 11 41  1  0
 11 42  1  0
 12 43  1  0
 13 44  1  0
 16 45  1  0
 17 46  1  0
 17 47  1  0
 17 48  1  0
 18 49  1  0
 18 50  1  0
 20 51  1  0
 22 52  1  0
 23 53  1  0
 24 54  1  0
 24 55  1  0
 25 56  1  0
 25 57  1  0
M  END
>  <Energy>  (75) 
411.3835186703032

>  <compound_id>  (75) 
23869

>  <target_id>  (75) 
1

>  <reference_id>  (75) 
27

>  <inspiration_ids>  (75) 
[27, 35]

>  <energy_score>  (75) 
390.7772417401487

>  <distance_score>  (75) 
12.175624156314745

>  <path>  (75) 
/opt/xchem-fragalysis-2/maxwin/BulkDock/SCRATCH/511022/C23869-P27/C23869-P27.minimised.mol

>  <scratch_subdir>  (75) 
/opt/xchem-fragalysis-2/maxwin/BulkDock/SCRATCH/511022/C23869-P27

>  <fragmenstein_runtime>  (75) 
45.208494424819946

>  <fragmenstein_outcome>  (75) 
too moved

>  <fragmenstein_mode>  (75) 
expansion

>  <fragmenstein_error>  (75) 


$$$$
C23869-P35
     RDKit          3D

 57 58  0  0  0  0  0  0  0  0999 V2000
   13.3320   -7.6189   22.3038 C   0  0  0  0  0  0  0  0  0  0  0  0
   12.4313   -8.0198   23.4717 C   0  0  0  0  0  0  0  0  0  0  0  0
   11.5419   -9.3028   23.3101 C   0  0  0  0  0  0  0  0  0  0  0  0
   10.8664   -9.4167   21.9266 C   0  0  0  0  0  0  0  0  0  0  0  0
   11.4192  -10.5637   21.0954 C   0  0  0  0  0  0  0  0  0  0  0  0
   10.4481   -9.3874   24.4500 C   0  0  0  0  0  0  0  0  0  0  0  0
   10.1241   -8.3802   25.0111 O   0  0  0  0  0  0  0  0  0  0  0  0
   10.0188  -10.7582   24.6463 N   0  0  0  0  0  0  0  0  0  0  0  0
    9.1299  -11.3552   25.6549 C   0  0  0  0  0  0  0  0  0  0  0  0
    8.7003  -12.7537   25.2889 C   0  0  0  0  0  0  0  0  0  0  0  0
    7.5930  -13.2920   26.2994 C   0  0  0  0  0  0  0  0  0  0  0  0
    5.9908  -12.8978   26.0942 C   0  0  0  0  0  0  0  0  0  0  0  0
    4.6545  -14.2939   25.8299 N   0  0  0  0  0  0  0  0  0  0  0  0
    3.8349  -15.4129   27.0124 C   0  0  0  0  0  0  0  0  0  0  0  0
    4.0696  -15.2314   28.0972 O   0  0  0  0  0  0  0  0  0  0  0  0
    2.5908  -16.9989   26.8648 C   0  0  0  0  0  0  0  0  0  0  0  0
    3.0600  -17.8472   25.6877 C   0  0  0  0  0  0  0  0  0  0  0  0
    0.8031  -17.6316   27.5063 C   0  0  0  0  0  0  0  0  0  0  0  0
   -0.9582  -18.4026   27.0935 C   0  0  0  0  0  0  0  0  0  0  0  0
   -2.1765  -18.0655   26.4354 C   0  0  0  0  0  0  0  0  0  0  0  0
   -3.2442  -18.9380   26.6440 N   0  0  0  0  0  0  0  0  0  0  0  0
   -2.8197  -19.8122   27.5019 C   0  0  0  0  0  0  0  0  0  0  0  0
   -1.5054  -19.5958   27.7940 N   0  0  0  0  0  0  0  0  0  0  0  0
    6.5185  -11.4271   25.5387 C   0  0  0  0  0  0  0  0  0  0  0  0
    7.8354  -10.6385   25.9536 C   0  0  0  0  0  0  0  0  0  0  0  0
   14.0325   -6.8412   22.6255 H   0  0  0  0  0  0  0  0  0  0  0  0
   12.7619   -7.2138   21.4697 H   0  0  0  0  0  0  0  0  0  0  0  0
   13.9160   -8.4747   21.9525 H   0  0  0  0  0  0  0  0  0  0  0  0
   11.8282   -7.1575   23.7609 H   0  0  0  0  0  0  0  0  0  0  0  0
   13.0783   -8.1981   24.3421 H   0  0  0  0  0  0  0  0  0  0  0  0
   12.2168  -10.1570   23.4602 H   0  0  0  0  0  0  0  0  0  0  0  0
   10.9608   -8.4921   21.3622 H   0  0  0  0  0  0  0  0  0  0  0  0
    9.7952   -9.6118   22.0440 H   0  0  0  0  0  0  0  0  0  0  0  0
   11.1958  -11.5228   21.5757 H   0  0  0  0  0  0  0  0  0  0  0  0
   10.9582  -10.5807   20.1031 H   0  0  0  0  0  0  0  0  0  0  0  0
   12.5058  -10.4995   20.9860 H   0  0  0  0  0  0  0  0  0  0  0  0
   10.5661  -11.3650   24.0475 H   0  0  0  0  0  0  0  0  0  0  0  0
    9.7347  -11.3793   26.5700 H   0  0  0  0  0  0  0  0  0  0  0  0
    9.5849  -13.3768   25.2717 H   0  0  0  0  0  0  0  0  0  0  0  0
    8.3507  -12.7483   24.2602 H   0  0  0  0  0  0  0  0  0  0  0  0
    7.9067  -12.9822   27.2986 H   0  0  0  0  0  0  0  0  0  0  0  0
    7.5687  -14.3502   26.2508 H   0  0  0  0  0  0  0  0  0  0  0  0
    5.6953  -12.6595   27.1282 H   0  0  0  0  0  0  0  0  0  0  0  0
    4.4349  -14.6070   24.8930 H   0  0  0  0  0  0  0  0  0  0  0  0
    2.0294  -16.2108   27.4001 H   0  0  0  0  0  0  0  0  0  0  0  0
    3.5548  -18.7852   25.9444 H   0  0  0  0  0  0  0  0  0  0  0  0
    3.7965  -17.3498   25.1217 H   0  0  0  0  0  0  0  0  0  0  0  0
    2.4224  -18.1048   24.8600 H   0  0  0  0  0  0  0  0  0  0  0  0
    0.6981  -16.9520   28.3659 H   0  0  0  0  0  0  0  0  0  0  0  0
    0.2204  -17.3511   26.7155 H   0  0  0  0  0  0  0  0  0  0  0  0
   -2.4389  -17.2254   25.8186 H   0  0  0  0  0  0  0  0  0  0  0  0
   -3.4001  -20.6028   27.9567 H   0  0  0  0  0  0  0  0  0  0  0  0
   -1.0267  -20.0834   28.5356 H   0  0  0  0  0  0  0  0  0  0  0  0
    6.5572  -11.4039   24.4471 H   0  0  0  0  0  0  0  0  0  0  0  0
    5.9185  -10.7356   26.0949 H   0  0  0  0  0  0  0  0  0  0  0  0
    7.7849  -10.4567   27.0374 H   0  0  0  0  0  0  0  0  0  0  0  0
    7.8049   -9.6488   25.4822 H   0  0  0  0  0  0  0  0  0  0  0  0
  1  2  1  0
  2  3  1  0
  3  4  1  0
  4  5  1  0
  3  6  1  0
  6  7  2  0
  6  8  1  0
  8  9  1  0
  9 10  1  0
 10 11  1  0
 11 12  1  0
 12 13  1  0
 13 14  1  0
 14 15  2  0
 14 16  1  0
 16 17  1  0
 16 18  1  0
 18 19  1  0
 19 20  2  0
 20 21  1  0
 21 22  2  0
 22 23  1  0
 12 24  1  0
 24 25  1  0
 25  9  1  0
 23 19  1  0
  1 26  1  0
  1 27  1  0
  1 28  1  0
  2 29  1  0
  2 30  1  0
  3 31  1  0
  4 32  1  0
  4 33  1  0
  5 34  1  0
  5 35  1  0
  5 36  1  0
  8 37  1  0
  9 38  1  0
 10 39  1  0
 10 40  1  0
 11 41  1  0
 11 42  1  0
 12 43  1  0
 13 44  1  0
 16 45  1  0
 17 46  1  0
 17 47  1  0
 17 48  1  0
 18 49  1  0
 18 50  1  0
 20 51  1  0
 22 52  1  0
 23 53  1  0
 24 54  1  0
 24 55  1  0
 25 56  1  0
 25 57  1  0
M  END
>  <Energy>  (76) 
574.75915273202202

>  <compound_id>  (76) 
23869

>  <target_id>  (76) 
1

>  <reference_id>  (76) 
35

>  <inspiration_ids>  (76) 
[27, 35]

>  <energy_score>  (76) 
554.1528758018787

>  <distance_score>  (76) 
11.628521983441399

>  <path>  (76) 
/opt/xchem-fragalysis-2/maxwin/BulkDock/SCRATCH/511022/C23869-P35/C23869-P35.minimised.mol

>  <scratch_subdir>  (76) 
/opt/xchem-fragalysis-2/maxwin/BulkDock/SCRATCH/511022/C23869-P35

>  <fragmenstein_runtime>  (76) 
24.698156356811523

>  <fragmenstein_outcome>  (76) 
too moved

>  <fragmenstein_mode>  (76) 
expansion

>  <fragmenstein_error>  (76) 


$$$$
C76310-P27
     RDKit          3D

 51 52  0  0  0  0  0  0  0  0999 V2000
   12.9292   -5.5867   23.9878 C   0  0  0  0  0  0  0  0  0  0  0  0
   12.6006   -7.0686   24.1942 C   0  0  0  0  0  0  0  0  0  0  0  0
   12.6189   -8.0116   22.9754 C   0  0  0  0  0  0  0  0  0  0  0  0
   13.8991   -7.8581   22.0998 C   0  0  0  0  0  0  0  0  0  0  0  0
   14.0507   -6.5522   21.3103 C   0  0  0  0  0  0  0  0  0  0  0  0
   12.3226   -9.5287   23.3689 C   0  0  0  0  0  0  0  0  0  0  0  0
   13.2033  -10.3301   23.2274 O   0  0  0  0  0  0  0  0  0  0  0  0
   10.9242   -9.7086   23.7694 N   0  0  0  0  0  0  0  0  0  0  0  0
   10.1350  -10.9444   24.0280 C   0  0  0  0  0  0  0  0  0  0  0  0
   10.9221  -12.2116   23.7942 C   0  0  0  0  0  0  0  0  0  0  0  0
    9.9992  -13.3641   24.1484 C   0  0  0  0  0  0  0  0  0  0  0  0
    9.1846  -13.1386   25.4551 C   0  0  0  0  0  0  0  0  0  0  0  0
    8.1637  -11.9911   25.5445 N   0  0  0  0  0  0  0  0  0  0  0  0
    7.2665  -12.2033   26.6658 C   0  0  0  0  0  0  0  0  0  0  0  0
    7.3530  -11.8388   27.8161 O   0  0  0  0  0  0  0  0  0  0  0  0
    5.7975  -12.9559   26.3805 C   0  0  0  0  0  0  0  0  0  0  0  0
    4.4830  -14.2662   26.0489 C   0  0  0  0  0  0  0  0  0  0  0  0
    3.7158  -15.1677   27.4068 C   0  0  0  0  0  0  0  0  0  0  0  0
    3.6900  -16.5306   27.6682 C   0  0  0  0  0  0  0  0  0  0  0  0
    2.5166  -17.0935   27.3269 N   0  0  0  0  0  0  0  0  0  0  0  0
    1.7869  -16.2484   28.0498 C   0  0  0  0  0  0  0  0  0  0  0  0
    2.3453  -15.0328   27.8738 N   0  0  0  0  0  0  0  0  0  0  0  0
    9.4641  -11.1297   25.4290 C   0  0  0  0  0  0  0  0  0  0  0  0
   14.0114   -5.4337   23.9545 H   0  0  0  0  0  0  0  0  0  0  0  0
   12.4728   -5.1623   23.0946 H   0  0  0  0  0  0  0  0  0  0  0  0
   12.5659   -5.0129   24.8479 H   0  0  0  0  0  0  0  0  0  0  0  0
   13.2938   -7.4640   24.9487 H   0  0  0  0  0  0  0  0  0  0  0  0
   11.6127   -7.1314   24.6659 H   0  0  0  0  0  0  0  0  0  0  0  0
   11.7921   -7.7865   22.3052 H   0  0  0  0  0  0  0  0  0  0  0  0
   13.9175   -8.6821   21.3760 H   0  0  0  0  0  0  0  0  0  0  0  0
   14.7871   -8.0000   22.7286 H   0  0  0  0  0  0  0  0  0  0  0  0
   13.1042   -6.2223   20.8765 H   0  0  0  0  0  0  0  0  0  0  0  0
   14.7856   -6.6912   20.5105 H   0  0  0  0  0  0  0  0  0  0  0  0
   14.4538   -5.7457   21.9236 H   0  0  0  0  0  0  0  0  0  0  0  0
   10.4450   -8.8217   23.7045 H   0  0  0  0  0  0  0  0  0  0  0  0
    9.3250  -10.8892   23.2883 H   0  0  0  0  0  0  0  0  0  0  0  0
   11.8062  -12.2438   24.4426 H   0  0  0  0  0  0  0  0  0  0  0  0
   11.2689  -12.2958   22.7585 H   0  0  0  0  0  0  0  0  0  0  0  0
   10.5886  -14.2831   24.2501 H   0  0  0  0  0  0  0  0  0  0  0  0
    9.3208  -13.5287   23.3135 H   0  0  0  0  0  0  0  0  0  0  0  0
    8.5942  -14.0505   25.6011 H   0  0  0  0  0  0  0  0  0  0  0  0
    9.8287  -13.1791   26.3516 H   0  0  0  0  0  0  0  0  0  0  0  0
    5.3680  -12.5922   27.3237 H   0  0  0  0  0  0  0  0  0  0  0  0
    5.6677  -12.3713   25.4810 H   0  0  0  0  0  0  0  0  0  0  0  0
    4.9381  -14.9587   25.3475 H   0  0  0  0  0  0  0  0  0  0  0  0
    3.7016  -13.9418   25.3750 H   0  0  0  0  0  0  0  0  0  0  0  0
    4.0895  -17.0292   28.5402 H   0  0  0  0  0  0  0  0  0  0  0  0
    2.3701  -18.0766   27.3396 H   0  0  0  0  0  0  0  0  0  0  0  0
    0.9827  -16.5348   28.7009 H   0  0  0  0  0  0  0  0  0  0  0  0
    9.0493  -10.1353   25.6608 H   0  0  0  0  0  0  0  0  0  0  0  0
   10.1693  -11.2499   26.2688 H   0  0  0  0  0  0  0  0  0  0  0  0
  1  2  1  0
  2  3  1  0
  3  4  1  0
  4  5  1  0
  3  6  1  0
  6  7  2  0
  6  8  1  0
  8  9  1  0
  9 10  1  0
 10 11  1  0
 11 12  1  0
 12 13  1  0
 13 14  1  0
 14 15  2  0
 14 16  1  0
 16 17  1  0
 17 18  1  0
 18 19  2  0
 19 20  1  0
 20 21  1  0
 21 22  2  0
 13 23  1  0
 23  9  1  0
 22 18  1  0
  1 24  1  0
  1 25  1  0
  1 26  1  0
  2 27  1  0
  2 28  1  0
  3 29  1  0
  4 30  1  0
  4 31  1  0
  5 32  1  0
  5 33  1  0
  5 34  1  0
  8 35  1  0
  9 36  1  0
 10 37  1  0
 10 38  1  0
 11 39  1  0
 11 40  1  0
 12 41  1  0
 12 42  1  0
 16 43  1  0
 16 44  1  0
 17 45  1  0
 17 46  1  0
 19 47  1  0
 20 48  1  0
 21 49  1  0
 23 50  1  0
 23 51  1  0
M  END
>  <Energy>  (77) 
270.11279193741575

>  <compound_id>  (77) 
76310

>  <target_id>  (77) 
1

>  <reference_id>  (77) 
27

>  <inspiration_ids>  (77) 
[27, 35]

>  <energy_score>  (77) 
228.54380640355407

>  <distance_score>  (77) 
12.629259907458794

>  <path>  (77) 
/opt/xchem-fragalysis-2/maxwin/BulkDock/SCRATCH/511022/C76310-P27/C76310-P27.minimised.mol

>  <scratch_subdir>  (77) 
/opt/xchem-fragalysis-2/maxwin/BulkDock/SCRATCH/511022/C76310-P27

>  <fragmenstein_runtime>  (77) 
31.951594352722168

>  <fragmenstein_outcome>  (77) 
too moved

>  <fragmenstein_mode>  (77) 
expansion

>  <fragmenstein_error>  (77) 


$$$$
C76310-P35
     RDKit          3D

 51 52  0  0  0  0  0  0  0  0999 V2000
   15.4362  -11.0179   18.4963 C   0  0  0  0  0  0  0  0  0  0  0  0
   14.7037  -12.3621   18.5553 C   0  0  0  0  0  0  0  0  0  0  0  0
   13.1772  -12.3340   18.3034 C   0  0  0  0  0  0  0  0  0  0  0  0
   12.4905  -11.6281   19.4930 C   0  0  0  0  0  0  0  0  0  0  0  0
   11.0458  -11.2372   19.2549 C   0  0  0  0  0  0  0  0  0  0  0  0
   12.5619  -13.7726   18.0941 C   0  0  0  0  0  0  0  0  0  0  0  0
   13.0702  -14.7318   18.5963 O   0  0  0  0  0  0  0  0  0  0  0  0
   11.3423  -13.6448   17.3264 N   0  0  0  0  0  0  0  0  0  0  0  0
   10.3919  -14.6658   16.8369 C   0  0  0  0  0  0  0  0  0  0  0  0
    9.0631  -13.9471   16.6676 C   0  0  0  0  0  0  0  0  0  0  0  0
    8.4627  -13.7976   18.0577 C   0  0  0  0  0  0  0  0  0  0  0  0
    8.9487  -14.9413   18.9797 C   0  0  0  0  0  0  0  0  0  0  0  0
    8.7297  -16.2753   18.3276 N   0  0  0  0  0  0  0  0  0  0  0  0
    8.3298  -17.2790   19.3308 C   0  0  0  0  0  0  0  0  0  0  0  0
    8.9997  -18.0305   19.9900 O   0  0  0  0  0  0  0  0  0  0  0  0
    6.7161  -17.2709   19.5353 C   0  0  0  0  0  0  0  0  0  0  0  0
    6.0038  -18.3676   20.6062 C   0  0  0  0  0  0  0  0  0  0  0  0
    4.3168  -19.0621   21.2426 C   0  0  0  0  0  0  0  0  0  0  0  0
    3.3666  -19.2503   22.3740 C   0  0  0  0  0  0  0  0  0  0  0  0
    2.0188  -19.7054   21.6368 N   0  0  0  0  0  0  0  0  0  0  0  0
    2.0451  -19.9464   20.3321 C   0  0  0  0  0  0  0  0  0  0  0  0
    3.2602  -20.2449   20.2451 N   0  0  0  0  0  0  0  0  0  0  0  0
   10.1307  -15.9497   17.7199 C   0  0  0  0  0  0  0  0  0  0  0  0
   16.4771  -11.1644   18.8063 H   0  0  0  0  0  0  0  0  0  0  0  0
   15.4676  -10.6550   17.4721 H   0  0  0  0  0  0  0  0  0  0  0  0
   15.0098  -10.2642   19.1585 H   0  0  0  0  0  0  0  0  0  0  0  0
   15.1694  -13.0318   17.8206 H   0  0  0  0  0  0  0  0  0  0  0  0
   14.8959  -12.8192   19.5348 H   0  0  0  0  0  0  0  0  0  0  0  0
   13.0239  -11.7793   17.3714 H   0  0  0  0  0  0  0  0  0  0  0  0
   13.0534  -10.7447   19.7889 H   0  0  0  0  0  0  0  0  0  0  0  0
   12.5221  -12.2897   20.3694 H   0  0  0  0  0  0  0  0  0  0  0  0
   10.4002  -12.0810   19.5047 H   0  0  0  0  0  0  0  0  0  0  0  0
   10.8681  -10.9644   18.2157 H   0  0  0  0  0  0  0  0  0  0  0  0
   10.7472  -10.4182   19.9153 H   0  0  0  0  0  0  0  0  0  0  0  0
   11.2637  -12.6938   16.9861 H   0  0  0  0  0  0  0  0  0  0  0  0
   10.7872  -14.9756   15.8629 H   0  0  0  0  0  0  0  0  0  0  0  0
    8.3960  -14.5597   16.0479 H   0  0  0  0  0  0  0  0  0  0  0  0
    9.1540  -12.9745   16.1712 H   0  0  0  0  0  0  0  0  0  0  0  0
    8.7087  -12.8286   18.4961 H   0  0  0  0  0  0  0  0  0  0  0  0
    7.3688  -13.8248   17.9745 H   0  0  0  0  0  0  0  0  0  0  0  0
    8.2700  -14.8914   19.8171 H   0  0  0  0  0  0  0  0  0  0  0  0
    9.9102  -14.7671   19.4938 H   0  0  0  0  0  0  0  0  0  0  0  0
    6.5124  -17.3760   18.4951 H   0  0  0  0  0  0  0  0  0  0  0  0
    6.3665  -16.2637   19.6817 H   0  0  0  0  0  0  0  0  0  0  0  0
    6.0874  -17.9253   21.5535 H   0  0  0  0  0  0  0  0  0  0  0  0
    6.6910  -19.2297   20.4879 H   0  0  0  0  0  0  0  0  0  0  0  0
    3.2907  -19.1269   23.4404 H   0  0  0  0  0  0  0  0  0  0  0  0
    1.2372  -19.6599   22.2641 H   0  0  0  0  0  0  0  0  0  0  0  0
    1.3348  -20.0019   19.5137 H   0  0  0  0  0  0  0  0  0  0  0  0
   10.9242  -16.1604   18.4540 H   0  0  0  0  0  0  0  0  0  0  0  0
   10.2403  -16.7950   17.0228 H   0  0  0  0  0  0  0  0  0  0  0  0
  1  2  1  0
  2  3  1  0
  3  4  1  0
  4  5  1  0
  3  6  1  0
  6  7  2  0
  6  8  1  0
  8  9  1  0
  9 10  1  0
 10 11  1  0
 11 12  1  0
 12 13  1  0
 13 14  1  0
 14 15  2  0
 14 16  1  0
 16 17  1  0
 17 18  1  0
 18 19  2  0
 19 20  1  0
 20 21  1  0
 21 22  2  0
 13 23  1  0
 23  9  1  0
 22 18  1  0
  1 24  1  0
  1 25  1  0
  1 26  1  0
  2 27  1  0
  2 28  1  0
  3 29  1  0
  4 30  1  0
  4 31  1  0
  5 32  1  0
  5 33  1  0
  5 34  1  0
  8 35  1  0
  9 36  1  0
 10 37  1  0
 10 38  1  0
 11 39  1  0
 11 40  1  0
 12 41  1  0
 12 42  1  0
 16 43  1  0
 16 44  1  0
 17 45  1  0
 17 46  1  0
 19 47  1  0
 20 48  1  0
 21 49  1  0
 23 50  1  0
 23 51  1  0
M  END
>  <Energy>  (78) 
294.3106899480639

>  <compound_id>  (78) 
76310

>  <target_id>  (78) 
1

>  <reference_id>  (78) 
35

>  <inspiration_ids>  (78) 
[27, 35]

>  <energy_score>  (78) 
252.74170441420654

>  <distance_score>  (78) 
13.948880761286457

>  <path>  (78) 
/opt/xchem-fragalysis-2/maxwin/BulkDock/SCRATCH/511022/C76310-P35/C76310-P35.minimised.mol

>  <scratch_subdir>  (78) 
/opt/xchem-fragalysis-2/maxwin/BulkDock/SCRATCH/511022/C76310-P35

>  <fragmenstein_runtime>  (78) 
40.51673245429993

>  <fragmenstein_outcome>  (78) 
too moved

>  <fragmenstein_mode>  (78) 
expansion

>  <fragmenstein_error>  (78) 


$$$$
C23868-P27
     RDKit          3D

 42 43  0  0  0  0  0  0  0  0999 V2000
   14.6750   -1.6242   20.2666 C   0  0  0  0  0  0  0  0  0  0  0  0
   14.8339   -3.0349   20.8291 C   0  0  0  0  0  0  0  0  0  0  0  0
   13.6720   -4.0439   20.5999 C   0  0  0  0  0  0  0  0  0  0  0  0
   13.7240   -4.6359   19.1748 C   0  0  0  0  0  0  0  0  0  0  0  0
   13.6768   -3.7098   17.9691 C   0  0  0  0  0  0  0  0  0  0  0  0
   13.7538   -5.2351   21.6639 C   0  0  0  0  0  0  0  0  0  0  0  0
   14.7620   -5.3324   22.3071 O   0  0  0  0  0  0  0  0  0  0  0  0
   12.5750   -6.0967   21.6076 N   0  0  0  0  0  0  0  0  0  0  0  0
   12.2980   -7.4062   22.2495 C   0  0  0  0  0  0  0  0  0  0  0  0
   10.9405   -8.1469   21.9986 C   0  0  0  0  0  0  0  0  0  0  0  0
   11.2396   -8.8658   23.3559 C   0  0  0  0  0  0  0  0  0  0  0  0
   10.1336   -9.5255   24.1035 N   0  0  0  0  0  0  0  0  0  0  0  0
    9.4209  -10.7669   23.8478 C   0  0  0  0  0  0  0  0  0  0  0  0
    9.4906  -11.5289   22.9275 O   0  0  0  0  0  0  0  0  0  0  0  0
    8.5281  -11.2341   24.9420 C   0  0  0  0  0  0  0  0  0  0  0  0
    8.3258  -12.5680   25.3017 C   0  0  0  0  0  0  0  0  0  0  0  0
    7.2976  -12.7395   26.1925 N   0  0  0  0  0  0  0  0  0  0  0  0
    6.9489  -11.5204   26.5137 C   0  0  0  0  0  0  0  0  0  0  0  0
    7.6257  -10.5856   25.7625 N   0  0  0  0  0  0  0  0  0  0  0  0
   11.8656   -7.4878   23.7577 C   0  0  0  0  0  0  0  0  0  0  0  0
   15.5965   -1.0590   20.4461 H   0  0  0  0  0  0  0  0  0  0  0  0
   14.4869   -1.5943   19.1957 H   0  0  0  0  0  0  0  0  0  0  0  0
   13.8749   -1.0870   20.7757 H   0  0  0  0  0  0  0  0  0  0  0  0
   15.7646   -3.4657   20.4376 H   0  0  0  0  0  0  0  0  0  0  0  0
   14.9925   -2.9160   21.9090 H   0  0  0  0  0  0  0  0  0  0  0  0
   12.7200   -3.5374   20.7703 H   0  0  0  0  0  0  0  0  0  0  0  0
   12.8746   -5.3025   19.0799 H   0  0  0  0  0  0  0  0  0  0  0  0
   14.6178   -5.2662   19.0916 H   0  0  0  0  0  0  0  0  0  0  0  0
   14.6383   -3.2129   17.8161 H   0  0  0  0  0  0  0  0  0  0  0  0
   13.4777   -4.2930   17.0632 H   0  0  0  0  0  0  0  0  0  0  0  0
   12.8893   -2.9619   18.0582 H   0  0  0  0  0  0  0  0  0  0  0  0
   11.9463   -5.7513   20.8886 H   0  0  0  0  0  0  0  0  0  0  0  0
   13.1606   -8.0571   22.0358 H   0  0  0  0  0  0  0  0  0  0  0  0
   10.0490   -7.5092   21.9977 H   0  0  0  0  0  0  0  0  0  0  0  0
   10.8920   -8.8189   21.1410 H   0  0  0  0  0  0  0  0  0  0  0  0
   12.0243   -9.6320   23.2409 H   0  0  0  0  0  0  0  0  0  0  0  0
    9.8831   -9.1843   25.0233 H   0  0  0  0  0  0  0  0  0  0  0  0
    8.8691  -13.4178   24.9020 H   0  0  0  0  0  0  0  0  0  0  0  0
    6.2211  -11.2402   27.2638 H   0  0  0  0  0  0  0  0  0  0  0  0
    7.4609   -9.5899   25.7953 H   0  0  0  0  0  0  0  0  0  0  0  0
   12.6874   -7.5390   24.4767 H   0  0  0  0  0  0  0  0  0  0  0  0
   11.1481   -6.7258   24.0829 H   0  0  0  0  0  0  0  0  0  0  0  0
  1  2  1  0
  2  3  1  0
  3  4  1  0
  4  5  1  0
  3  6  1  0
  6  7  2  0
  6  8  1  0
  8  9  1  0
  9 10  1  0
 10 11  1  0
 11 12  1  0
 12 13  1  0
 13 14  2  0
 13 15  1  0
 15 16  2  0
 16 17  1  0
 17 18  2  0
 18 19  1  0
 11 20  1  0
 20  9  1  0
 19 15  1  0
  1 21  1  0
  1 22  1  0
  1 23  1  0
  2 24  1  0
  2 25  1  0
  3 26  1  0
  4 27  1  0
  4 28  1  0
  5 29  1  0
  5 30  1  0
  5 31  1  0
  8 32  1  0
  9 33  1  0
 10 34  1  0
 10 35  1  0
 11 36  1  0
 12 37  1  0
 16 38  1  0
 18 39  1  0
 19 40  1  0
 20 41  1  0
 20 42  1  0
M  END
>  <Energy>  (79) 
1.3148537794552335

>  <compound_id>  (79) 
23868

>  <target_id>  (79) 
1

>  <reference_id>  (79) 
27

>  <inspiration_ids>  (79) 
[27, 35]

>  <energy_score>  (79) 
2.2980923984268884

>  <distance_score>  (79) 
14.152561100436653

>  <path>  (79) 
/opt/xchem-fragalysis-2/maxwin/BulkDock/SCRATCH/511022/C23868-P27/C23868-P27.minimised.mol

>  <scratch_subdir>  (79) 
/opt/xchem-fragalysis-2/maxwin/BulkDock/SCRATCH/511022/C23868-P27

>  <fragmenstein_runtime>  (79) 
32.353697538375854

>  <fragmenstein_outcome>  (79) 
too moved

>  <fragmenstein_mode>  (79) 
expansion

>  <fragmenstein_error>  (79) 


$$$$
C23868-P35
     RDKit          3D

 42 43  0  0  0  0  0  0  0  0999 V2000
   14.5195   -2.8782   21.8957 C   0  0  0  0  0  0  0  0  0  0  0  0
   15.1163   -4.2161   21.4760 C   0  0  0  0  0  0  0  0  0  0  0  0
   14.1816   -5.1406   20.6717 C   0  0  0  0  0  0  0  0  0  0  0  0
   13.5016   -4.3762   19.5030 C   0  0  0  0  0  0  0  0  0  0  0  0
   14.4395   -3.7811   18.4614 C   0  0  0  0  0  0  0  0  0  0  0  0
   13.1172   -5.9146   21.5601 C   0  0  0  0  0  0  0  0  0  0  0  0
   11.9635   -5.6314   21.4394 O   0  0  0  0  0  0  0  0  0  0  0  0
   13.7595   -6.9066   22.3880 N   0  0  0  0  0  0  0  0  0  0  0  0
   13.2088   -7.8174   23.4175 C   0  0  0  0  0  0  0  0  0  0  0  0
   12.4610   -9.1224   22.9787 C   0  0  0  0  0  0  0  0  0  0  0  0
   11.7974   -9.0513   24.4009 C   0  0  0  0  0  0  0  0  0  0  0  0
   10.5029   -9.7336   24.6820 N   0  0  0  0  0  0  0  0  0  0  0  0
    9.6650   -9.7327   25.8707 C   0  0  0  0  0  0  0  0  0  0  0  0
    9.7653   -9.1191   26.8936 O   0  0  0  0  0  0  0  0  0  0  0  0
    8.5520  -10.7241   25.8736 C   0  0  0  0  0  0  0  0  0  0  0  0
    8.1036  -11.7560   25.0617 C   0  0  0  0  0  0  0  0  0  0  0  0
    7.0177  -12.4309   25.5970 N   0  0  0  0  0  0  0  0  0  0  0  0
    6.7892  -11.8362   26.7408 C   0  0  0  0  0  0  0  0  0  0  0  0
    7.6765  -10.8274   26.9579 N   0  0  0  0  0  0  0  0  0  0  0  0
   11.8748   -7.5010   24.1725 C   0  0  0  0  0  0  0  0  0  0  0  0
   14.2829   -2.2376   21.0431 H   0  0  0  0  0  0  0  0  0  0  0  0
   15.2367   -2.3334   22.5189 H   0  0  0  0  0  0  0  0  0  0  0  0
   13.6175   -3.0373   22.4924 H   0  0  0  0  0  0  0  0  0  0  0  0
   15.4602   -4.7319   22.3799 H   0  0  0  0  0  0  0  0  0  0  0  0
   16.0172   -4.0166   20.8825 H   0  0  0  0  0  0  0  0  0  0  0  0
   14.8096   -5.9241   20.2250 H   0  0  0  0  0  0  0  0  0  0  0  0
   12.8286   -5.0570   18.9855 H   0  0  0  0  0  0  0  0  0  0  0  0
   12.8734   -3.5785   19.9060 H   0  0  0  0  0  0  0  0  0  0  0  0
   15.1323   -4.5339   18.0757 H   0  0  0  0  0  0  0  0  0  0  0  0
   15.0309   -2.9602   18.8764 H   0  0  0  0  0  0  0  0  0  0  0  0
   13.8631   -3.3826   17.6203 H   0  0  0  0  0  0  0  0  0  0  0  0
   14.7659   -6.8123   22.2965 H   0  0  0  0  0  0  0  0  0  0  0  0
   14.0284   -8.0343   24.1208 H   0  0  0  0  0  0  0  0  0  0  0  0
   11.7681   -9.0067   22.1372 H   0  0  0  0  0  0  0  0  0  0  0  0
   13.0997   -9.9919   22.8034 H   0  0  0  0  0  0  0  0  0  0  0  0
   12.4984   -9.3794   25.1855 H   0  0  0  0  0  0  0  0  0  0  0  0
   10.1644  -10.4379   24.0404 H   0  0  0  0  0  0  0  0  0  0  0  0
    8.5246  -12.0650   24.1157 H   0  0  0  0  0  0  0  0  0  0  0  0
    6.0104  -12.0666   27.4509 H   0  0  0  0  0  0  0  0  0  0  0  0
    7.7275  -10.2324   27.7754 H   0  0  0  0  0  0  0  0  0  0  0  0
   11.0646   -7.0875   23.5617 H   0  0  0  0  0  0  0  0  0  0  0  0
   11.9824   -6.9003   25.0795 H   0  0  0  0  0  0  0  0  0  0  0  0
  1  2  1  0
  2  3  1  0
  3  4  1  0
  4  5  1  0
  3  6  1  0
  6  7  2  0
  6  8  1  0
  8  9  1  0
  9 10  1  0
 10 11  1  0
 11 12  1  0
 12 13  1  0
 13 14  2  0
 13 15  1  0
 15 16  2  0
 16 17  1  0
 17 18  2  0
 18 19  1  0
 11 20  1  0
 20  9  1  0
 19 15  1  0
  1 21  1  0
  1 22  1  0
  1 23  1  0
  2 24  1  0
  2 25  1  0
  3 26  1  0
  4 27  1  0
  4 28  1  0
  5 29  1  0
  5 30  1  0
  5 31  1  0
  8 32  1  0
  9 33  1  0
 10 34  1  0
 10 35  1  0
 11 36  1  0
 12 37  1  0
 16 38  1  0
 18 39  1  0
 19 40  1  0
 20 41  1  0
 20 42  1  0
M  END
>  <Energy>  (80) 
-14.242895298328559

>  <compound_id>  (80) 
23868

>  <target_id>  (80) 
1

>  <reference_id>  (80) 
35

>  <inspiration_ids>  (80) 
[27, 35]

>  <energy_score>  (80) 
-13.259656679355885

>  <distance_score>  (80) 
14.23921974942071

>  <path>  (80) 
/opt/xchem-fragalysis-2/maxwin/BulkDock/SCRATCH/511022/C23868-P35/C23868-P35.minimised.mol

>  <scratch_subdir>  (80) 
/opt/xchem-fragalysis-2/maxwin/BulkDock/SCRATCH/511022/C23868-P35

>  <fragmenstein_runtime>  (80) 
21.15890884399414

>  <fragmenstein_outcome>  (80) 
too moved

>  <fragmenstein_mode>  (80) 
expansion

>  <fragmenstein_error>  (80) 


$$$$
C24516-P27
     RDKit          3D

 46 47  0  0  0  0  0  0  0  0999 V2000
   14.1760   -4.8485   21.6717 C   0  0  0  0  0  0  0  0  0  0  0  0
   12.6564   -4.6926   21.5536 C   0  0  0  0  0  0  0  0  0  0  0  0
   12.0073   -5.4343   20.3162 C   0  0  0  0  0  0  0  0  0  0  0  0
   12.7979   -4.8251   19.0024 C   0  0  0  0  0  0  0  0  0  0  0  0
   13.4295   -3.4299   18.9457 C   0  0  0  0  0  0  0  0  0  0  0  0
   10.1623   -6.0438   20.2666 C   0  0  0  0  0  0  0  0  0  0  0  0
    9.1623   -5.4491   19.9829 O   0  0  0  0  0  0  0  0  0  0  0  0
   10.2680   -7.6951   20.8356 N   0  0  0  0  0  0  0  0  0  0  0  0
    9.2247   -8.7194   20.9944 C   0  0  0  0  0  0  0  0  0  0  0  0
    9.6960  -10.0639   20.8161 C   0  0  0  0  0  0  0  0  0  0  0  0
    9.3806  -10.1090   22.3690 C   0  0  0  0  0  0  0  0  0  0  0  0
    7.6528   -9.9277   22.8461 N   0  0  0  0  0  0  0  0  0  0  0  0
    7.1033  -11.2128   22.8712 C   0  0  0  0  0  0  0  0  0  0  0  0
    6.5621  -11.7206   21.8982 O   0  0  0  0  0  0  0  0  0  0  0  0
    7.1427  -11.9005   24.2970 C   0  0  0  0  0  0  0  0  0  0  0  0
    7.5149  -10.9836   25.3324 O   0  0  0  0  0  0  0  0  0  0  0  0
    5.8266  -12.5994   24.6008 C   0  0  0  0  0  0  0  0  0  0  0  0
    4.7056  -12.1457   25.2782 C   0  0  0  0  0  0  0  0  0  0  0  0
    3.7146  -13.0273   24.9569 N   0  0  0  0  0  0  0  0  0  0  0  0
    4.2793  -13.9662   24.1448 C   0  0  0  0  0  0  0  0  0  0  0  0
    5.5790  -13.8487   24.0859 N   0  0  0  0  0  0  0  0  0  0  0  0
    8.9846   -9.3114   22.5244 C   0  0  0  0  0  0  0  0  0  0  0  0
   14.4436   -5.9071   21.7575 H   0  0  0  0  0  0  0  0  0  0  0  0
   14.5243   -4.3473   22.5816 H   0  0  0  0  0  0  0  0  0  0  0  0
   14.7422   -4.4288   20.8418 H   0  0  0  0  0  0  0  0  0  0  0  0
   12.2810   -5.0523   22.5138 H   0  0  0  0  0  0  0  0  0  0  0  0
   12.4190   -3.6335   21.5265 H   0  0  0  0  0  0  0  0  0  0  0  0
   12.4868   -6.4075   20.4658 H   0  0  0  0  0  0  0  0  0  0  0  0
   13.6442   -5.4920   18.8442 H   0  0  0  0  0  0  0  0  0  0  0  0
   12.1954   -4.8357   18.0968 H   0  0  0  0  0  0  0  0  0  0  0  0
   12.9788   -2.8458   18.1366 H   0  0  0  0  0  0  0  0  0  0  0  0
   14.4922   -3.5111   18.6870 H   0  0  0  0  0  0  0  0  0  0  0  0
   13.3647   -2.8603   19.8690 H   0  0  0  0  0  0  0  0  0  0  0  0
   11.2326   -7.9092   21.0766 H   0  0  0  0  0  0  0  0  0  0  0  0
    8.2927   -8.4489   20.4899 H   0  0  0  0  0  0  0  0  0  0  0  0
    9.0411  -10.7105   20.2249 H   0  0  0  0  0  0  0  0  0  0  0  0
   10.7562  -10.2112   20.6027 H   0  0  0  0  0  0  0  0  0  0  0  0
    9.3000  -11.2730   22.3148 H   0  0  0  0  0  0  0  0  0  0  0  0
   10.2514  -10.4140   23.1709 H   0  0  0  0  0  0  0  0  0  0  0  0
    7.9342  -12.6576   24.2501 H   0  0  0  0  0  0  0  0  0  0  0  0
    6.9521  -10.2042   25.1741 H   0  0  0  0  0  0  0  0  0  0  0  0
    4.5064  -11.2357   25.8246 H   0  0  0  0  0  0  0  0  0  0  0  0
    2.7286  -12.9029   25.1482 H   0  0  0  0  0  0  0  0  0  0  0  0
    3.7184  -14.6905   23.5814 H   0  0  0  0  0  0  0  0  0  0  0  0
    8.3874   -8.3244   22.6724 H   0  0  0  0  0  0  0  0  0  0  0  0
    9.5367   -8.7121   23.4631 H   0  0  0  0  0  0  0  0  0  0  0  0
  1  2  1  0
  2  3  1  0
  3  4  1  0
  4  5  1  0
  3  6  1  0
  6  7  2  0
  6  8  1  0
  8  9  1  0
  9 10  1  0
 10 11  1  0
 11 12  1  0
 12 13  1  0
 13 14  2  0
 13 15  1  0
 15 16  1  0
 15 17  1  0
 17 18  2  0
 18 19  1  0
 19 20  1  0
 20 21  2  0
 12 22  1  0
 22  9  1  0
 21 17  1  0
  1 23  1  0
  1 24  1  0
  1 25  1  0
  2 26  1  0
  2 27  1  0
  3 28  1  0
  4 29  1  0
  4 30  1  0
  5 31  1  0
  5 32  1  0
  5 33  1  0
  8 34  1  0
  9 35  1  0
 10 36  1  0
 10 37  1  0
 11 38  1  0
 11 39  1  0
 15 40  1  0
 16 41  1  0
 18 42  1  0
 19 43  1  0
 20 44  1  0
 22 45  1  0
 22 46  1  0
M  END
>  <Energy>  (81) 
698.52222689881728

>  <compound_id>  (81) 
24516

>  <target_id>  (81) 
1

>  <reference_id>  (81) 
27

>  <inspiration_ids>  (81) 
[27, 35]

>  <energy_score>  (81) 
595.3502324027766

>  <distance_score>  (81) 
13.376013967238736

>  <path>  (81) 
/opt/xchem-fragalysis-2/maxwin/BulkDock/SCRATCH/511022/C24516-P27/C24516-P27.minimised.mol

>  <scratch_subdir>  (81) 
/opt/xchem-fragalysis-2/maxwin/BulkDock/SCRATCH/511022/C24516-P27

>  <fragmenstein_runtime>  (81) 
23.755316495895386

>  <fragmenstein_outcome>  (81) 
too moved

>  <fragmenstein_mode>  (81) 
expansion

>  <fragmenstein_error>  (81) 


$$$$
C24516-P35
     RDKit          3D

 46 47  0  0  0  0  0  0  0  0999 V2000
   12.1460   -8.7613   22.5326 C   0  0  0  0  0  0  0  0  0  0  0  0
   12.5479  -10.1966   22.2003 C   0  0  0  0  0  0  0  0  0  0  0  0
   11.4554  -11.2759   21.8865 C   0  0  0  0  0  0  0  0  0  0  0  0
   10.4769  -10.8855   20.7471 C   0  0  0  0  0  0  0  0  0  0  0  0
    9.5594   -9.6837   20.9374 C   0  0  0  0  0  0  0  0  0  0  0  0
   10.7618  -11.8599   23.1940 C   0  0  0  0  0  0  0  0  0  0  0  0
   10.2901  -11.0590   23.9532 O   0  0  0  0  0  0  0  0  0  0  0  0
   10.8870  -13.3202   23.3007 N   0  0  0  0  0  0  0  0  0  0  0  0
   10.5616  -14.2408   24.4128 C   0  0  0  0  0  0  0  0  0  0  0  0
   11.7285  -14.4405   25.2322 C   0  0  0  0  0  0  0  0  0  0  0  0
   11.5321  -15.9778   24.7575 C   0  0  0  0  0  0  0  0  0  0  0  0
   11.1736  -16.9176   25.7889 N   0  0  0  0  0  0  0  0  0  0  0  0
    9.9972  -17.5749   26.2184 C   0  0  0  0  0  0  0  0  0  0  0  0
    9.2395  -17.1050   27.0572 O   0  0  0  0  0  0  0  0  0  0  0  0
    9.7766  -19.0445   25.6202 C   0  0  0  0  0  0  0  0  0  0  0  0
   11.0196  -19.6829   25.3185 O   0  0  0  0  0  0  0  0  0  0  0  0
    8.8483  -20.0349   26.4256 C   0  0  0  0  0  0  0  0  0  0  0  0
    8.5503  -20.1704   27.7747 C   0  0  0  0  0  0  0  0  0  0  0  0
    7.5891  -21.1547   27.8801 N   0  0  0  0  0  0  0  0  0  0  0  0
    7.3430  -21.6259   26.6249 C   0  0  0  0  0  0  0  0  0  0  0  0
    8.0822  -20.9906   25.7347 N   0  0  0  0  0  0  0  0  0  0  0  0
   10.7070  -15.8676   24.3067 C   0  0  0  0  0  0  0  0  0  0  0  0
   11.9106   -8.1885   21.6399 H   0  0  0  0  0  0  0  0  0  0  0  0
   12.9857   -8.2492   23.0153 H   0  0  0  0  0  0  0  0  0  0  0  0
   11.2974   -8.7286   23.2202 H   0  0  0  0  0  0  0  0  0  0  0  0
   13.2492  -10.1643   21.3572 H   0  0  0  0  0  0  0  0  0  0  0  0
   13.1297  -10.5734   23.0526 H   0  0  0  0  0  0  0  0  0  0  0  0
   12.0369  -12.1159   21.4784 H   0  0  0  0  0  0  0  0  0  0  0  0
   11.0492  -10.7456   19.8228 H   0  0  0  0  0  0  0  0  0  0  0  0
    9.8305  -11.7554   20.5699 H   0  0  0  0  0  0  0  0  0  0  0  0
    9.0548   -9.7193   21.9069 H   0  0  0  0  0  0  0  0  0  0  0  0
    8.7853   -9.6861   20.1624 H   0  0  0  0  0  0  0  0  0  0  0  0
   10.0841   -8.7369   20.8516 H   0  0  0  0  0  0  0  0  0  0  0  0
   11.2646  -13.6851   22.4337 H   0  0  0  0  0  0  0  0  0  0  0  0
    9.6889  -13.8919   24.9734 H   0  0  0  0  0  0  0  0  0  0  0  0
   11.5796  -14.3096   26.3090 H   0  0  0  0  0  0  0  0  0  0  0  0
   12.6641  -13.9988   24.8720 H   0  0  0  0  0  0  0  0  0  0  0  0
   12.3406  -16.4173   23.9114 H   0  0  0  0  0  0  0  0  0  0  0  0
   12.5695  -16.0813   25.2730 H   0  0  0  0  0  0  0  0  0  0  0  0
    9.2826  -18.8784   24.6553 H   0  0  0  0  0  0  0  0  0  0  0  0
   11.4531  -19.8206   26.1783 H   0  0  0  0  0  0  0  0  0  0  0  0
    8.8994  -19.6274   28.6430 H   0  0  0  0  0  0  0  0  0  0  0  0
    7.1576  -21.4806   28.7338 H   0  0  0  0  0  0  0  0  0  0  0  0
    6.6276  -22.4114   26.4119 H   0  0  0  0  0  0  0  0  0  0  0  0
   10.5853  -16.3963   23.2387 H   0  0  0  0  0  0  0  0  0  0  0  0
    9.5650  -16.0474   24.4352 H   0  0  0  0  0  0  0  0  0  0  0  0
  1  2  1  0
  2  3  1  0
  3  4  1  0
  4  5  1  0
  3  6  1  0
  6  7  2  0
  6  8  1  0
  8  9  1  0
  9 10  1  0
 10 11  1  0
 11 12  1  0
 12 13  1  0
 13 14  2  0
 13 15  1  0
 15 16  1  0
 15 17  1  0
 17 18  2  0
 18 19  1  0
 19 20  1  0
 20 21  2  0
 12 22  1  0
 22  9  1  0
 21 17  1  0
  1 23  1  0
  1 24  1  0
  1 25  1  0
  2 26  1  0
  2 27  1  0
  3 28  1  0
  4 29  1  0
  4 30  1  0
  5 31  1  0
  5 32  1  0
  5 33  1  0
  8 34  1  0
  9 35  1  0
 10 36  1  0
 10 37  1  0
 11 38  1  0
 11 39  1  0
 15 40  1  0
 16 41  1  0
 18 42  1  0
 19 43  1  0
 20 44  1  0
 22 45  1  0
 22 46  1  0
M  END
>  <Energy>  (82) 
627.0290027709292

>  <compound_id>  (82) 
24516

>  <target_id>  (82) 
1

>  <reference_id>  (82) 
35

>  <inspiration_ids>  (82) 
[27, 35]

>  <energy_score>  (82) 
523.8570082749004

>  <distance_score>  (82) 
14.866150958337204

>  <path>  (82) 
/opt/xchem-fragalysis-2/maxwin/BulkDock/SCRATCH/511022/C24516-P35/C24516-P35.minimised.mol

>  <scratch_subdir>  (82) 
/opt/xchem-fragalysis-2/maxwin/BulkDock/SCRATCH/511022/C24516-P35

>  <fragmenstein_runtime>  (82) 
44.9056077003479

>  <fragmenstein_outcome>  (82) 
too moved

>  <fragmenstein_mode>  (82) 
expansion

>  <fragmenstein_error>  (82) 


$$$$
C76313-P27
     RDKit          3D

 49 50  0  0  0  0  0  0  0  0999 V2000
    5.6896   -6.9819   18.1738 C   0  0  0  0  0  0  0  0  0  0  0  0
    4.6130   -7.8125   17.4835 C   0  0  0  0  0  0  0  0  0  0  0  0
    4.9174   -9.3323   17.3244 C   0  0  0  0  0  0  0  0  0  0  0  0
    6.2319   -9.6120   16.5602 C   0  0  0  0  0  0  0  0  0  0  0  0
    6.4441   -8.8013   15.2830 C   0  0  0  0  0  0  0  0  0  0  0  0
    3.7308  -10.1020   16.6388 C   0  0  0  0  0  0  0  0  0  0  0  0
    3.1147   -9.5288   15.7841 O   0  0  0  0  0  0  0  0  0  0  0  0
    3.6242  -11.4694   17.1307 N   0  0  0  0  0  0  0  0  0  0  0  0
    2.8059  -12.5899   16.6728 C   0  0  0  0  0  0  0  0  0  0  0  0
    1.4105  -12.2184   16.2837 C   0  0  0  0  0  0  0  0  0  0  0  0
    0.3609  -13.1437   17.4135 C   0  0  0  0  0  0  0  0  0  0  0  0
    0.2307  -14.9822   18.0481 N   0  0  0  0  0  0  0  0  0  0  0  0
   -1.1997  -15.5806   18.7356 C   0  0  0  0  0  0  0  0  0  0  0  0
   -2.2551  -15.1340   18.8438 O   0  0  0  0  0  0  0  0  0  0  0  0
   -0.8291  -17.0792   19.1662 C   0  0  0  0  0  0  0  0  0  0  0  0
    0.5768  -17.2034   19.3896 O   0  0  0  0  0  0  0  0  0  0  0  0
   -1.6524  -17.8150   20.2763 C   0  0  0  0  0  0  0  0  0  0  0  0
   -1.2738  -18.9755   20.9452 C   0  0  0  0  0  0  0  0  0  0  0  0
   -2.3024  -19.3197   21.7814 N   0  0  0  0  0  0  0  0  0  0  0  0
   -3.2951  -18.4058   21.5841 C   0  0  0  0  0  0  0  0  0  0  0  0
   -2.9419  -17.4925   20.6981 N   0  0  0  0  0  0  0  0  0  0  0  0
    0.5758  -13.9150   17.3422 C   0  0  0  0  0  0  0  0  0  0  0  0
    2.4317  -13.6570   17.6772 C   0  0  0  0  0  0  0  0  0  0  0  0
    6.4504   -6.6834   17.4584 H   0  0  0  0  0  0  0  0  0  0  0  0
    5.2466   -6.0714   18.5857 H   0  0  0  0  0  0  0  0  0  0  0  0
    6.1504   -7.5329   18.9981 H   0  0  0  0  0  0  0  0  0  0  0  0
    4.3718   -7.3587   16.5147 H   0  0  0  0  0  0  0  0  0  0  0  0
    3.6923   -7.7303   18.0770 H   0  0  0  0  0  0  0  0  0  0  0  0
    5.0222   -9.7433   18.3377 H   0  0  0  0  0  0  0  0  0  0  0  0
    6.2713  -10.6754   16.2914 H   0  0  0  0  0  0  0  0  0  0  0  0
    7.0650   -9.4600   17.2502 H   0  0  0  0  0  0  0  0  0  0  0  0
    7.3889   -9.0875   14.8097 H   0  0  0  0  0  0  0  0  0  0  0  0
    5.6407   -8.9893   14.5643 H   0  0  0  0  0  0  0  0  0  0  0  0
    6.4791   -7.7306   15.4809 H   0  0  0  0  0  0  0  0  0  0  0  0
    4.3633  -11.6377   17.8051 H   0  0  0  0  0  0  0  0  0  0  0  0
    3.3343  -13.0249   15.8181 H   0  0  0  0  0  0  0  0  0  0  0  0
    1.1617  -12.5242   15.2594 H   0  0  0  0  0  0  0  0  0  0  0  0
    1.1457  -11.1655   16.4230 H   0  0  0  0  0  0  0  0  0  0  0  0
   -0.7815  -12.7586   17.1447 H   0  0  0  0  0  0  0  0  0  0  0  0
    0.3762  -12.4553   18.4038 H   0  0  0  0  0  0  0  0  0  0  0  0
   -1.0298  -17.6582   18.2533 H   0  0  0  0  0  0  0  0  0  0  0  0
    0.9644  -16.4619   18.8829 H   0  0  0  0  0  0  0  0  0  0  0  0
   -0.3490  -19.5372   20.9282 H   0  0  0  0  0  0  0  0  0  0  0  0
   -2.2797  -20.0645   22.4664 H   0  0  0  0  0  0  0  0  0  0  0  0
   -4.2354  -18.4434   22.1159 H   0  0  0  0  0  0  0  0  0  0  0  0
    0.0064  -14.2278   16.1588 H   0  0  0  0  0  0  0  0  0  0  0  0
    1.1869  -14.7135   16.6621 H   0  0  0  0  0  0  0  0  0  0  0  0
    2.9590  -14.6103   17.5389 H   0  0  0  0  0  0  0  0  0  0  0  0
    2.5478  -13.3469   18.7182 H   0  0  0  0  0  0  0  0  0  0  0  0
  1  2  1  0
  2  3  1  0
  3  4  1  0
  4  5  1  0
  3  6  1  0
  6  7  2  0
  6  8  1  0
  8  9  1  0
  9 10  1  0
 10 11  1  0
 11 12  1  0
 12 13  1  0
 13 14  2  0
 13 15  1  0
 15 16  1  0
 15 17  1  0
 17 18  2  0
 18 19  1  0
 19 20  1  0
 20 21  2  0
 12 22  1  0
 22 23  1  0
 23  9  1  0
 21 17  1  0
  1 24  1  0
  1 25  1  0
  1 26  1  0
  2 27  1  0
  2 28  1  0
  3 29  1  0
  4 30  1  0
  4 31  1  0
  5 32  1  0
  5 33  1  0
  5 34  1  0
  8 35  1  0
  9 36  1  0
 10 37  1  0
 10 38  1  0
 11 39  1  0
 11 40  1  0
 15 41  1  0
 16 42  1  0
 18 43  1  0
 19 44  1  0
 20 45  1  0
 22 46  1  0
 22 47  1  0
 23 48  1  0
 23 49  1  0
M  END
>  <Energy>  (83) 
829.24130276380868

>  <compound_id>  (83) 
76313

>  <target_id>  (83) 
1

>  <reference_id>  (83) 
27

>  <inspiration_ids>  (83) 
[27, 35]

>  <energy_score>  (83) 
738.262149434666

>  <distance_score>  (83) 
14.475072620247744

>  <path>  (83) 
/opt/xchem-fragalysis-2/maxwin/BulkDock/SCRATCH/511022/C76313-P27/C76313-P27.minimised.mol

>  <scratch_subdir>  (83) 
/opt/xchem-fragalysis-2/maxwin/BulkDock/SCRATCH/511022/C76313-P27

>  <fragmenstein_runtime>  (83) 
28.50541067123413

>  <fragmenstein_outcome>  (83) 
too moved

>  <fragmenstein_mode>  (83) 
expansion

>  <fragmenstein_error>  (83) 


$$$$
C76313-P35
     RDKit          3D

 49 50  0  0  0  0  0  0  0  0999 V2000
   15.4320   -1.9024   19.9744 C   0  0  0  0  0  0  0  0  0  0  0  0
   15.0383   -2.6859   21.2200 C   0  0  0  0  0  0  0  0  0  0  0  0
   14.5016   -4.1366   21.0336 C   0  0  0  0  0  0  0  0  0  0  0  0
   13.3034   -4.1949   20.0687 C   0  0  0  0  0  0  0  0  0  0  0  0
   13.6243   -4.0294   18.5834 C   0  0  0  0  0  0  0  0  0  0  0  0
   14.1782   -4.7623   22.4650 C   0  0  0  0  0  0  0  0  0  0  0  0
   14.2958   -4.0687   23.4341 O   0  0  0  0  0  0  0  0  0  0  0  0
   13.8658   -6.1696   22.3461 N   0  0  0  0  0  0  0  0  0  0  0  0
   13.6942   -7.1919   23.3564 C   0  0  0  0  0  0  0  0  0  0  0  0
   13.2737   -8.5391   22.8309 C   0  0  0  0  0  0  0  0  0  0  0  0
   12.5247   -9.2473   24.2817 C   0  0  0  0  0  0  0  0  0  0  0  0
   10.7079   -8.9452   24.9627 N   0  0  0  0  0  0  0  0  0  0  0  0
    9.9597  -10.0003   25.9834 C   0  0  0  0  0  0  0  0  0  0  0  0
   10.3323  -10.9451   26.5352 O   0  0  0  0  0  0  0  0  0  0  0  0
    8.4524   -9.5071   26.0378 C   0  0  0  0  0  0  0  0  0  0  0  0
    8.3524   -8.1151   26.3640 O   0  0  0  0  0  0  0  0  0  0  0  0
    7.5201  -10.3533   26.9376 C   0  0  0  0  0  0  0  0  0  0  0  0
    6.9583  -10.0259   28.1687 C   0  0  0  0  0  0  0  0  0  0  0  0
    6.0827  -11.0231   28.4819 N   0  0  0  0  0  0  0  0  0  0  0  0
    6.1392  -11.8947   27.4421 C   0  0  0  0  0  0  0  0  0  0  0  0
    6.9824  -11.5511   26.5047 N   0  0  0  0  0  0  0  0  0  0  0  0
   11.9389   -8.7617   24.5489 C   0  0  0  0  0  0  0  0  0  0  0  0
   12.6256   -7.0151   24.4231 C   0  0  0  0  0  0  0  0  0  0  0  0
   14.5560   -1.4939   19.4668 H   0  0  0  0  0  0  0  0  0  0  0  0
   16.0522   -1.0456   20.2601 H   0  0  0  0  0  0  0  0  0  0  0  0
   16.0126   -2.5171   19.2809 H   0  0  0  0  0  0  0  0  0  0  0  0
   14.3070   -2.0905   21.7799 H   0  0  0  0  0  0  0  0  0  0  0  0
   15.9264   -2.7438   21.8640 H   0  0  0  0  0  0  0  0  0  0  0  0
   15.3190   -4.7461   20.6244 H   0  0  0  0  0  0  0  0  0  0  0  0
   12.5928   -3.4305   20.3767 H   0  0  0  0  0  0  0  0  0  0  0  0
   12.7764   -5.1466   20.1802 H   0  0  0  0  0  0  0  0  0  0  0  0
   14.5754   -4.5030   18.3265 H   0  0  0  0  0  0  0  0  0  0  0  0
   13.6665   -2.9812   18.2852 H   0  0  0  0  0  0  0  0  0  0  0  0
   12.8402   -4.4832   17.9712 H   0  0  0  0  0  0  0  0  0  0  0  0
   13.7664   -6.4035   21.3681 H   0  0  0  0  0  0  0  0  0  0  0  0
   14.6646   -7.2804   23.8598 H   0  0  0  0  0  0  0  0  0  0  0  0
   14.1235   -9.1663   22.5433 H   0  0  0  0  0  0  0  0  0  0  0  0
   12.5373   -8.5069   22.0195 H   0  0  0  0  0  0  0  0  0  0  0  0
   12.3866  -10.3763   23.8478 H   0  0  0  0  0  0  0  0  0  0  0  0
   13.4000   -9.6080   25.0870 H   0  0  0  0  0  0  0  0  0  0  0  0
    8.0685   -9.6120   25.0147 H   0  0  0  0  0  0  0  0  0  0  0  0
    8.8282   -8.0170   27.2063 H   0  0  0  0  0  0  0  0  0  0  0  0
    7.0882   -9.1661   28.8104 H   0  0  0  0  0  0  0  0  0  0  0  0
    5.4919  -11.1016   29.3078 H   0  0  0  0  0  0  0  0  0  0  0  0
    5.5050  -12.7559   27.4195 H   0  0  0  0  0  0  0  0  0  0  0  0
   12.0101   -8.4175   25.7473 H   0  0  0  0  0  0  0  0  0  0  0  0
   11.2091   -8.2498   23.6724 H   0  0  0  0  0  0  0  0  0  0  0  0
   11.8215   -6.3189   24.1901 H   0  0  0  0  0  0  0  0  0  0  0  0
   13.0664   -6.7454   25.3919 H   0  0  0  0  0  0  0  0  0  0  0  0
  1  2  1  0
  2  3  1  0
  3  4  1  0
  4  5  1  0
  3  6  1  0
  6  7  2  0
  6  8  1  0
  8  9  1  0
  9 10  1  0
 10 11  1  0
 11 12  1  0
 12 13  1  0
 13 14  2  0
 13 15  1  0
 15 16  1  0
 15 17  1  0
 17 18  2  0
 18 19  1  0
 19 20  1  0
 20 21  2  0
 12 22  1  0
 22 23  1  0
 23  9  1  0
 21 17  1  0
  1 24  1  0
  1 25  1  0
  1 26  1  0
  2 27  1  0
  2 28  1  0
  3 29  1  0
  4 30  1  0
  4 31  1  0
  5 32  1  0
  5 33  1  0
  5 34  1  0
  8 35  1  0
  9 36  1  0
 10 37  1  0
 10 38  1  0
 11 39  1  0
 11 40  1  0
 15 41  1  0
 16 42  1  0
 18 43  1  0
 19 44  1  0
 20 45  1  0
 22 46  1  0
 22 47  1  0
 23 48  1  0
 23 49  1  0
M  END
>  <Energy>  (84) 
831.38952088705867

>  <compound_id>  (84) 
76313

>  <target_id>  (84) 
1

>  <reference_id>  (84) 
35

>  <inspiration_ids>  (84) 
[27, 35]

>  <energy_score>  (84) 
740.4103675579281

>  <distance_score>  (84) 
13.921897481308154

>  <path>  (84) 
/opt/xchem-fragalysis-2/maxwin/BulkDock/SCRATCH/511022/C76313-P35/C76313-P35.minimised.mol

>  <scratch_subdir>  (84) 
/opt/xchem-fragalysis-2/maxwin/BulkDock/SCRATCH/511022/C76313-P35

>  <fragmenstein_runtime>  (84) 
39.88797879219055

>  <fragmenstein_outcome>  (84) 
too moved

>  <fragmenstein_mode>  (84) 
expansion

>  <fragmenstein_error>  (84) 


$$$$
C23872-P27
     RDKit          3D

 51 52  0  0  0  0  0  0  0  0999 V2000
   15.2132   -9.5346   20.3250 C   0  0  0  0  0  0  0  0  0  0  0  0
   15.2738  -11.0669   20.2390 C   0  0  0  0  0  0  0  0  0  0  0  0
   14.8116  -11.7606   18.8960 C   0  0  0  0  0  0  0  0  0  0  0  0
   15.7837  -11.2125   17.8154 C   0  0  0  0  0  0  0  0  0  0  0  0
   15.9220  -11.9949   16.5182 C   0  0  0  0  0  0  0  0  0  0  0  0
   13.2428  -11.5933   18.7794 C   0  0  0  0  0  0  0  0  0  0  0  0
   12.6215  -11.5269   19.8033 O   0  0  0  0  0  0  0  0  0  0  0  0
   12.8156  -11.4491   17.4122 N   0  0  0  0  0  0  0  0  0  0  0  0
   11.5159  -11.0772   16.8440 C   0  0  0  0  0  0  0  0  0  0  0  0
   11.8622   -9.8907   15.7874 C   0  0  0  0  0  0  0  0  0  0  0  0
   12.2510   -7.9817   15.9078 C   0  0  0  0  0  0  0  0  0  0  0  0
   10.7896   -6.9972   15.5983 C   0  0  0  0  0  0  0  0  0  0  0  0
    9.5138   -8.5619   15.2326 C   0  0  0  0  0  0  0  0  0  0  0  0
    8.8885  -10.1335   16.0758 C   0  0  0  0  0  0  0  0  0  0  0  0
    9.2299  -11.5994   16.0548 N   0  0  0  0  0  0  0  0  0  0  0  0
    8.1775  -12.5543   15.8921 C   0  0  0  0  0  0  0  0  0  0  0  0
    7.8769  -12.8975   14.7464 O   0  0  0  0  0  0  0  0  0  0  0  0
    7.4136  -13.1134   17.0470 C   0  0  0  0  0  0  0  0  0  0  0  0
    7.4401  -12.9974   18.4340 C   0  0  0  0  0  0  0  0  0  0  0  0
    6.4569  -13.7520   19.0708 N   0  0  0  0  0  0  0  0  0  0  0  0
    5.8190  -14.3598   18.1021 C   0  0  0  0  0  0  0  0  0  0  0  0
    6.3521  -14.0208   16.8854 N   0  0  0  0  0  0  0  0  0  0  0  0
   10.6086  -12.1162   16.1956 C   0  0  0  0  0  0  0  0  0  0  0  0
   15.5927   -9.0329   19.4347 H   0  0  0  0  0  0  0  0  0  0  0  0
   14.1964   -9.2113   20.5369 H   0  0  0  0  0  0  0  0  0  0  0  0
   15.8225   -9.1997   21.1720 H   0  0  0  0  0  0  0  0  0  0  0  0
   14.7070  -11.4827   21.0820 H   0  0  0  0  0  0  0  0  0  0  0  0
   16.3137  -11.3676   20.4264 H   0  0  0  0  0  0  0  0  0  0  0  0
   14.9824  -12.8398   19.0049 H   0  0  0  0  0  0  0  0  0  0  0  0
   16.7937  -11.2339   18.2507 H   0  0  0  0  0  0  0  0  0  0  0  0
   15.6124  -10.1645   17.6106 H   0  0  0  0  0  0  0  0  0  0  0  0
   15.0791  -11.9317   15.8321 H   0  0  0  0  0  0  0  0  0  0  0  0
   16.0963  -13.0546   16.7328 H   0  0  0  0  0  0  0  0  0  0  0  0
   16.7950  -11.6289   15.9659 H   0  0  0  0  0  0  0  0  0  0  0  0
   13.6254  -11.4844   16.8089 H   0  0  0  0  0  0  0  0  0  0  0  0
   10.9552  -10.7359   17.7103 H   0  0  0  0  0  0  0  0  0  0  0  0
   11.0818  -10.1130   15.1054 H   0  0  0  0  0  0  0  0  0  0  0  0
   12.6602  -10.3257   15.1703 H   0  0  0  0  0  0  0  0  0  0  0  0
   12.5276   -7.3034   16.6827 H   0  0  0  0  0  0  0  0  0  0  0  0
   13.0685   -7.7823   15.2715 H   0  0  0  0  0  0  0  0  0  0  0  0
   10.8436   -6.4626   14.7448 H   0  0  0  0  0  0  0  0  0  0  0  0
   11.0559   -6.2736   16.3723 H   0  0  0  0  0  0  0  0  0  0  0  0
    9.8251   -9.2711   14.5007 H   0  0  0  0  0  0  0  0  0  0  0  0
    8.6686   -8.0964   14.6894 H   0  0  0  0  0  0  0  0  0  0  0  0
    8.7961  -10.0169   17.1570 H   0  0  0  0  0  0  0  0  0  0  0  0
    7.8676  -10.1667   15.6566 H   0  0  0  0  0  0  0  0  0  0  0  0
    8.1265  -12.3954   19.0167 H   0  0  0  0  0  0  0  0  0  0  0  0
    4.9846  -15.0409   18.2043 H   0  0  0  0  0  0  0  0  0  0  0  0
    6.0405  -14.3530   15.9827 H   0  0  0  0  0  0  0  0  0  0  0  0
   10.9653  -12.4060   15.2006 H   0  0  0  0  0  0  0  0  0  0  0  0
   10.5693  -13.0314   16.7973 H   0  0  0  0  0  0  0  0  0  0  0  0
  1  2  1  0
  2  3  1  0
  3  4  1  0
  4  5  1  0
  3  6  1  0
  6  7  2  0
  6  8  1  0
  8  9  1  0
  9 10  1  0
 10 11  1  0
 11 12  1  0
 12 13  1  0
 13 14  1  0
 14 15  1  0
 15 16  1  0
 16 17  2  0
 16 18  1  0
 18 19  2  0
 19 20  1  0
 20 21  2  0
 21 22  1  0
 15 23  1  0
 23  9  1  0
 22 18  1  0
  1 24  1  0
  1 25  1  0
  1 26  1  0
  2 27  1  0
  2 28  1  0
  3 29  1  0
  4 30  1  0
  4 31  1  0
  5 32  1  0
  5 33  1  0
  5 34  1  0
  8 35  1  0
  9 36  1  0
 10 37  1  0
 10 38  1  0
 11 39  1  0
 11 40  1  0
 12 41  1  0
 12 42  1  0
 13 43  1  0
 13 44  1  0
 14 45  1  0
 14 46  1  0
 19 47  1  0
 21 48  1  0
 22 49  1  0
 23 50  1  0
 23 51  1  0
M  END
>  <Energy>  (85) 
300.53193322124491

>  <compound_id>  (85) 
23872

>  <target_id>  (85) 
1

>  <reference_id>  (85) 
27

>  <inspiration_ids>  (85) 
[27, 35]

>  <energy_score>  (85) 
243.4034164635392

>  <distance_score>  (85) 
15.420799719492223

>  <path>  (85) 
/opt/xchem-fragalysis-2/maxwin/BulkDock/SCRATCH/511022/C23872-P27/C23872-P27.minimised.mol

>  <scratch_subdir>  (85) 
/opt/xchem-fragalysis-2/maxwin/BulkDock/SCRATCH/511022/C23872-P27

>  <fragmenstein_runtime>  (85) 
27.014599084854126

>  <fragmenstein_outcome>  (85) 
too moved

>  <fragmenstein_mode>  (85) 
expansion

>  <fragmenstein_error>  (85) 


$$$$
C23872-P35
     RDKit          3D

 51 52  0  0  0  0  0  0  0  0999 V2000
   14.3327   -3.8045   23.4004 C   0  0  0  0  0  0  0  0  0  0  0  0
   13.2485   -4.8625   23.6299 C   0  0  0  0  0  0  0  0  0  0  0  0
   13.5311   -6.2801   23.0366 C   0  0  0  0  0  0  0  0  0  0  0  0
   13.9477   -6.1351   21.5424 C   0  0  0  0  0  0  0  0  0  0  0  0
   13.1124   -5.2361   20.6257 C   0  0  0  0  0  0  0  0  0  0  0  0
   12.3929   -7.3490   23.5185 C   0  0  0  0  0  0  0  0  0  0  0  0
   11.7451   -7.0520   24.4810 O   0  0  0  0  0  0  0  0  0  0  0  0
   12.3196   -8.5005   22.6604 N   0  0  0  0  0  0  0  0  0  0  0  0
   11.3566   -9.6423   22.6294 C   0  0  0  0  0  0  0  0  0  0  0  0
   11.9490  -10.8046   21.8258 C   0  0  0  0  0  0  0  0  0  0  0  0
   13.3284  -11.2400   22.2968 C   0  0  0  0  0  0  0  0  0  0  0  0
   13.3272  -11.7935   23.7113 C   0  0  0  0  0  0  0  0  0  0  0  0
   12.7932  -10.8449   24.7862 C   0  0  0  0  0  0  0  0  0  0  0  0
   11.0725  -10.5006   24.7883 C   0  0  0  0  0  0  0  0  0  0  0  0
   10.6299  -11.8797   24.8543 N   0  0  0  0  0  0  0  0  0  0  0  0
    9.6884  -12.6933   24.1756 C   0  0  0  0  0  0  0  0  0  0  0  0
    9.9787  -13.3320   23.1737 O   0  0  0  0  0  0  0  0  0  0  0  0
    8.3300  -12.8767   24.7562 C   0  0  0  0  0  0  0  0  0  0  0  0
    7.2333  -13.5637   24.2127 C   0  0  0  0  0  0  0  0  0  0  0  0
    6.2095  -13.7616   25.1181 N   0  0  0  0  0  0  0  0  0  0  0  0
    6.6650  -13.2564   26.2368 C   0  0  0  0  0  0  0  0  0  0  0  0
    7.9163  -12.7071   26.0702 N   0  0  0  0  0  0  0  0  0  0  0  0
   10.5130  -10.1662   24.1148 C   0  0  0  0  0  0  0  0  0  0  0  0
   14.0736   -2.8900   23.9444 H   0  0  0  0  0  0  0  0  0  0  0  0
   15.2957   -4.1588   23.7820 H   0  0  0  0  0  0  0  0  0  0  0  0
   14.4622   -3.5315   22.3522 H   0  0  0  0  0  0  0  0  0  0  0  0
   12.2954   -4.4814   23.2510 H   0  0  0  0  0  0  0  0  0  0  0  0
   13.1151   -4.9616   24.7148 H   0  0  0  0  0  0  0  0  0  0  0  0
   14.4261   -6.6614   23.5528 H   0  0  0  0  0  0  0  0  0  0  0  0
   14.0716   -7.1203   21.0950 H   0  0  0  0  0  0  0  0  0  0  0  0
   14.9651   -5.7191   21.5339 H   0  0  0  0  0  0  0  0  0  0  0  0
   12.1398   -5.6744   20.4307 H   0  0  0  0  0  0  0  0  0  0  0  0
   13.6210   -5.1116   19.6639 H   0  0  0  0  0  0  0  0  0  0  0  0
   12.9466   -4.2356   21.0267 H   0  0  0  0  0  0  0  0  0  0  0  0
   13.0780   -8.4620   21.9924 H   0  0  0  0  0  0  0  0  0  0  0  0
   10.5310   -9.2409   22.0269 H   0  0  0  0  0  0  0  0  0  0  0  0
   12.0368  -10.5131   20.7757 H   0  0  0  0  0  0  0  0  0  0  0  0
   11.2605  -11.6537   21.8294 H   0  0  0  0  0  0  0  0  0  0  0  0
   14.0487  -10.4179   22.2215 H   0  0  0  0  0  0  0  0  0  0  0  0
   13.6970  -12.0210   21.6200 H   0  0  0  0  0  0  0  0  0  0  0  0
   14.3631  -12.0465   23.9711 H   0  0  0  0  0  0  0  0  0  0  0  0
   12.7795  -12.7419   23.7336 H   0  0  0  0  0  0  0  0  0  0  0  0
   13.3366   -9.8925   24.7425 H   0  0  0  0  0  0  0  0  0  0  0  0
   13.0096  -11.2889   25.7689 H   0  0  0  0  0  0  0  0  0  0  0  0
   10.7756  -10.6519   25.9430 H   0  0  0  0  0  0  0  0  0  0  0  0
   11.4320   -9.5813   25.5479 H   0  0  0  0  0  0  0  0  0  0  0  0
    7.1633  -13.9593   23.2058 H   0  0  0  0  0  0  0  0  0  0  0  0
    6.1565  -13.2551   27.1915 H   0  0  0  0  0  0  0  0  0  0  0  0
    8.4931  -12.3260   26.8066 H   0  0  0  0  0  0  0  0  0  0  0  0
    9.7253   -9.3386   24.5421 H   0  0  0  0  0  0  0  0  0  0  0  0
    9.6231  -10.5054   23.4409 H   0  0  0  0  0  0  0  0  0  0  0  0
  1  2  1  0
  2  3  1  0
  3  4  1  0
  4  5  1  0
  3  6  1  0
  6  7  2  0
  6  8  1  0
  8  9  1  0
  9 10  1  0
 10 11  1  0
 11 12  1  0
 12 13  1  0
 13 14  1  0
 14 15  1  0
 15 16  1  0
 16 17  2  0
 16 18  1  0
 18 19  2  0
 19 20  1  0
 20 21  2  0
 21 22  1  0
 15 23  1  0
 23  9  1  0
 22 18  1  0
  1 24  1  0
  1 25  1  0
  1 26  1  0
  2 27  1  0
  2 28  1  0
  3 29  1  0
  4 30  1  0
  4 31  1  0
  5 32  1  0
  5 33  1  0
  5 34  1  0
  8 35  1  0
  9 36  1  0
 10 37  1  0
 10 38  1  0
 11 39  1  0
 11 40  1  0
 12 41  1  0
 12 42  1  0
 13 43  1  0
 13 44  1  0
 14 45  1  0
 14 46  1  0
 19 47  1  0
 21 48  1  0
 22 49  1  0
 23 50  1  0
 23 51  1  0
M  END
>  <Energy>  (86) 
577.92827754772168

>  <compound_id>  (86) 
23872

>  <target_id>  (86) 
1

>  <reference_id>  (86) 
35

>  <inspiration_ids>  (86) 
[27, 35]

>  <energy_score>  (86) 
520.799760790021

>  <distance_score>  (86) 
13.832487095957791

>  <path>  (86) 
/opt/xchem-fragalysis-2/maxwin/BulkDock/SCRATCH/511022/C23872-P35/C23872-P35.minimised.mol

>  <scratch_subdir>  (86) 
/opt/xchem-fragalysis-2/maxwin/BulkDock/SCRATCH/511022/C23872-P35

>  <fragmenstein_runtime>  (86) 
20.141961336135864

>  <fragmenstein_outcome>  (86) 
too moved

>  <fragmenstein_mode>  (86) 
expansion

>  <fragmenstein_error>  (86) 


$$$$
C73146-P27
     RDKit          3D

 46 47  0  0  0  0  0  0  0  0999 V2000
   14.5452   -9.5065   21.2387 C   0  0  0  0  0  0  0  0  0  0  0  0
   13.2975  -10.0178   21.9623 C   0  0  0  0  0  0  0  0  0  0  0  0
   12.9045   -9.2031   23.1995 C   0  0  0  0  0  0  0  0  0  0  0  0
   12.3420   -7.8293   22.8246 C   0  0  0  0  0  0  0  0  0  0  0  0
   13.3377   -6.7664   22.3516 C   0  0  0  0  0  0  0  0  0  0  0  0
   11.9420   -9.9625   24.2086 C   0  0  0  0  0  0  0  0  0  0  0  0
   12.3919  -10.1707   25.3011 O   0  0  0  0  0  0  0  0  0  0  0  0
   10.6184  -10.2097   23.6690 N   0  0  0  0  0  0  0  0  0  0  0  0
    9.4110  -10.8984   24.2759 C   0  0  0  0  0  0  0  0  0  0  0  0
    8.5100   -9.7092   24.5570 C   0  0  0  0  0  0  0  0  0  0  0  0
    7.2928  -11.3195   25.0227 N   0  0  0  0  0  0  0  0  0  0  0  0
    6.3772  -11.4183   26.3181 C   0  0  0  0  0  0  0  0  0  0  0  0
    6.1177  -10.6359   27.1521 O   0  0  0  0  0  0  0  0  0  0  0  0
    5.8160  -12.9514   26.5013 C   0  0  0  0  0  0  0  0  0  0  0  0
    7.1161  -13.5075   26.0875 O   0  0  0  0  0  0  0  0  0  0  0  0
    4.4244  -14.2216   26.1238 C   0  0  0  0  0  0  0  0  0  0  0  0
    3.6902  -15.3921   27.3923 C   0  0  0  0  0  0  0  0  0  0  0  0
    3.3556  -16.7668   27.1203 C   0  0  0  0  0  0  0  0  0  0  0  0
    2.1125  -17.1338   27.4724 N   0  0  0  0  0  0  0  0  0  0  0  0
    1.6582  -16.2380   28.2643 C   0  0  0  0  0  0  0  0  0  0  0  0
    2.3776  -15.1420   28.0021 N   0  0  0  0  0  0  0  0  0  0  0  0
    7.9169  -10.3489   24.4415 C   0  0  0  0  0  0  0  0  0  0  0  0
   14.4199   -8.5281   20.7878 H   0  0  0  0  0  0  0  0  0  0  0  0
   15.3952   -9.4576   21.9272 H   0  0  0  0  0  0  0  0  0  0  0  0
   14.8112  -10.2016   20.4351 H   0  0  0  0  0  0  0  0  0  0  0  0
   12.4555  -10.0967   21.2687 H   0  0  0  0  0  0  0  0  0  0  0  0
   13.5023  -11.0477   22.2831 H   0  0  0  0  0  0  0  0  0  0  0  0
   13.8219   -9.0348   23.7832 H   0  0  0  0  0  0  0  0  0  0  0  0
   11.5812   -7.9970   22.0566 H   0  0  0  0  0  0  0  0  0  0  0  0
   11.8406   -7.4314   23.7148 H   0  0  0  0  0  0  0  0  0  0  0  0
   12.9975   -5.7687   22.6497 H   0  0  0  0  0  0  0  0  0  0  0  0
   13.4237   -6.7518   21.2645 H   0  0  0  0  0  0  0  0  0  0  0  0
   14.3277   -6.9160   22.7923 H   0  0  0  0  0  0  0  0  0  0  0  0
   10.6174   -9.9849   22.6803 H   0  0  0  0  0  0  0  0  0  0  0  0
    9.2733  -11.8030   23.6688 H   0  0  0  0  0  0  0  0  0  0  0  0
    8.4159   -8.8286   23.7083 H   0  0  0  0  0  0  0  0  0  0  0  0
    8.8073   -9.1575   25.5560 H   0  0  0  0  0  0  0  0  0  0  0  0
    5.7187  -12.9105   27.5930 H   0  0  0  0  0  0  0  0  0  0  0  0
    7.7566  -13.2930   26.7938 H   0  0  0  0  0  0  0  0  0  0  0  0
    3.6505  -13.9294   25.4277 H   0  0  0  0  0  0  0  0  0  0  0  0
    4.9011  -14.8898   25.4001 H   0  0  0  0  0  0  0  0  0  0  0  0
    3.4334  -17.2886   26.1755 H   0  0  0  0  0  0  0  0  0  0  0  0
    1.7414  -18.0412   27.3430 H   0  0  0  0  0  0  0  0  0  0  0  0
    0.8717  -16.4091   28.9915 H   0  0  0  0  0  0  0  0  0  0  0  0
    7.6410  -10.7516   23.2813 H   0  0  0  0  0  0  0  0  0  0  0  0
    6.8737   -9.7145   23.9952 H   0  0  0  0  0  0  0  0  0  0  0  0
  1  2  1  0
  2  3  1  0
  3  4  1  0
  4  5  1  0
  3  6  1  0
  6  7  2  0
  6  8  1  0
  8  9  1  0
  9 10  1  0
 10 11  1  0
 11 12  1  0
 12 13  2  0
 12 14  1  0
 14 15  1  0
 14 16  1  0
 16 17  1  0
 17 18  2  0
 18 19  1  0
 19 20  1  0
 20 21  2  0
 11 22  1  0
 22  9  1  0
 21 17  1  0
  1 23  1  0
  1 24  1  0
  1 25  1  0
  2 26  1  0
  2 27  1  0
  3 28  1  0
  4 29  1  0
  4 30  1  0
  5 31  1  0
  5 32  1  0
  5 33  1  0
  8 34  1  0
  9 35  1  0
 10 36  1  0
 10 37  1  0
 14 38  1  0
 15 39  1  0
 16 40  1  0
 16 41  1  0
 18 42  1  0
 19 43  1  0
 20 44  1  0
 22 45  1  0
 22 46  1  0
M  END
>  <Energy>  (87) 
865.05839384685544

>  <compound_id>  (87) 
73146

>  <target_id>  (87) 
1

>  <reference_id>  (87) 
27

>  <inspiration_ids>  (87) 
[27, 35]

>  <energy_score>  (87) 
788.79161136949

>  <distance_score>  (87) 
13.029906736668377

>  <path>  (87) 
/opt/xchem-fragalysis-2/maxwin/BulkDock/SCRATCH/511022/C73146-P27/C73146-P27.minimised.mol

>  <scratch_subdir>  (87) 
/opt/xchem-fragalysis-2/maxwin/BulkDock/SCRATCH/511022/C73146-P27

>  <fragmenstein_runtime>  (87) 
30.249632596969604

>  <fragmenstein_outcome>  (87) 
too moved

>  <fragmenstein_mode>  (87) 
expansion

>  <fragmenstein_error>  (87) 


$$$$
C73146-P35
     RDKit          3D

 46 47  0  0  0  0  0  0  0  0999 V2000
   12.3383   -7.8172   23.8977 C   0  0  0  0  0  0  0  0  0  0  0  0
   11.0098   -8.4138   24.3767 C   0  0  0  0  0  0  0  0  0  0  0  0
   10.3186   -9.4676   23.4708 C   0  0  0  0  0  0  0  0  0  0  0  0
   10.6193   -9.2304   21.9530 C   0  0  0  0  0  0  0  0  0  0  0  0
   10.1178  -10.3212   21.0170 C   0  0  0  0  0  0  0  0  0  0  0  0
    8.7672   -9.5631   23.7713 C   0  0  0  0  0  0  0  0  0  0  0  0
    8.0137   -9.1944   22.9147 O   0  0  0  0  0  0  0  0  0  0  0  0
    8.5043  -10.1969   25.0594 N   0  0  0  0  0  0  0  0  0  0  0  0
    7.2022  -10.6846   25.6832 C   0  0  0  0  0  0  0  0  0  0  0  0
    6.7901  -12.0754   26.0200 C   0  0  0  0  0  0  0  0  0  0  0  0
    5.8893  -12.8999   26.5490 N   0  0  0  0  0  0  0  0  0  0  0  0
    4.6053  -14.0392   25.9274 C   0  0  0  0  0  0  0  0  0  0  0  0
    4.3205  -14.3891   24.8652 O   0  0  0  0  0  0  0  0  0  0  0  0
    3.7353  -14.8147   27.3073 C   0  0  0  0  0  0  0  0  0  0  0  0
    2.5723  -13.9895   27.1535 O   0  0  0  0  0  0  0  0  0  0  0  0
    2.9065  -16.4526   27.6361 C   0  0  0  0  0  0  0  0  0  0  0  0
    1.6774  -16.8134   28.6775 C   0  0  0  0  0  0  0  0  0  0  0  0
    1.9585  -17.2088   30.0886 C   0  0  0  0  0  0  0  0  0  0  0  0
    0.8211  -17.4721   30.6274 N   0  0  0  0  0  0  0  0  0  0  0  0
    0.3732  -16.3084   30.2297 C   0  0  0  0  0  0  0  0  0  0  0  0
    0.5278  -16.3963   28.8663 N   0  0  0  0  0  0  0  0  0  0  0  0
    7.3095  -12.1006   25.2733 C   0  0  0  0  0  0  0  0  0  0  0  0
   13.0896   -8.6077   23.7973 H   0  0  0  0  0  0  0  0  0  0  0  0
   12.2704   -7.2979   22.9448 H   0  0  0  0  0  0  0  0  0  0  0  0
   12.7091   -7.1026   24.6400 H   0  0  0  0  0  0  0  0  0  0  0  0
   11.2093   -8.9019   25.3412 H   0  0  0  0  0  0  0  0  0  0  0  0
   10.3065   -7.6205   24.6363 H   0  0  0  0  0  0  0  0  0  0  0  0
   10.7431  -10.4513   23.7171 H   0  0  0  0  0  0  0  0  0  0  0  0
   10.1909   -8.2973   21.6068 H   0  0  0  0  0  0  0  0  0  0  0  0
   11.7032   -9.1759   21.8135 H   0  0  0  0  0  0  0  0  0  0  0  0
   10.4588  -11.3055   21.3539 H   0  0  0  0  0  0  0  0  0  0  0  0
   10.4998  -10.1686   20.0058 H   0  0  0  0  0  0  0  0  0  0  0  0
    9.0267  -10.3422   20.9562 H   0  0  0  0  0  0  0  0  0  0  0  0
    9.3891  -10.4481   25.4926 H   0  0  0  0  0  0  0  0  0  0  0  0
    6.4327  -10.0763   25.2183 H   0  0  0  0  0  0  0  0  0  0  0  0
    6.2490  -11.3869   26.8414 H   0  0  0  0  0  0  0  0  0  0  0  0
    7.6085  -12.3248   26.9918 H   0  0  0  0  0  0  0  0  0  0  0  0
    4.0652  -15.5618   26.5996 H   0  0  0  0  0  0  0  0  0  0  0  0
    2.5828  -13.4653   26.3345 H   0  0  0  0  0  0  0  0  0  0  0  0
    2.7670  -17.0862   26.7527 H   0  0  0  0  0  0  0  0  0  0  0  0
    3.7339  -16.9396   28.1441 H   0  0  0  0  0  0  0  0  0  0  0  0
    2.9462  -17.4623   30.4198 H   0  0  0  0  0  0  0  0  0  0  0  0
    0.3907  -18.3856   30.6110 H   0  0  0  0  0  0  0  0  0  0  0  0
   -0.3322  -15.6640   30.7539 H   0  0  0  0  0  0  0  0  0  0  0  0
    6.9862  -12.1703   24.1700 H   0  0  0  0  0  0  0  0  0  0  0  0
    8.3242  -12.7278   25.2525 H   0  0  0  0  0  0  0  0  0  0  0  0
  1  2  1  0
  2  3  1  0
  3  4  1  0
  4  5  1  0
  3  6  1  0
  6  7  2  0
  6  8  1  0
  8  9  1  0
  9 10  1  0
 10 11  1  0
 11 12  1  0
 12 13  2  0
 12 14  1  0
 14 15  1  0
 14 16  1  0
 16 17  1  0
 17 18  2  0
 18 19  1  0
 19 20  1  0
 20 21  2  0
 11 22  1  0
 22  9  1  0
 21 17  1  0
  1 23  1  0
  1 24  1  0
  1 25  1  0
  2 26  1  0
  2 27  1  0
  3 28  1  0
  4 29  1  0
  4 30  1  0
  5 31  1  0
  5 32  1  0
  5 33  1  0
  8 34  1  0
  9 35  1  0
 10 36  1  0
 10 37  1  0
 14 38  1  0
 15 39  1  0
 16 40  1  0
 16 41  1  0
 18 42  1  0
 19 43  1  0
 20 44  1  0
 22 45  1  0
 22 46  1  0
M  END
>  <Energy>  (88) 
950.65905232453099

>  <compound_id>  (88) 
73146

>  <target_id>  (88) 
1

>  <reference_id>  (88) 
35

>  <inspiration_ids>  (88) 
[27, 35]

>  <energy_score>  (88) 
874.3922698471631

>  <distance_score>  (88) 
13.254578207623007

>  <path>  (88) 
/opt/xchem-fragalysis-2/maxwin/BulkDock/SCRATCH/511022/C73146-P35/C73146-P35.minimised.mol

>  <scratch_subdir>  (88) 
/opt/xchem-fragalysis-2/maxwin/BulkDock/SCRATCH/511022/C73146-P35

>  <fragmenstein_runtime>  (88) 
31.69375443458557

>  <fragmenstein_outcome>  (88) 
too moved

>  <fragmenstein_mode>  (88) 
expansion

>  <fragmenstein_error>  (88) 


$$$$
C24516-P27
     RDKit          3D

 46 47  0  0  0  0  0  0  0  0999 V2000
   14.1760   -4.8485   21.6717 C   0  0  0  0  0  0  0  0  0  0  0  0
   12.6564   -4.6926   21.5536 C   0  0  0  0  0  0  0  0  0  0  0  0
   12.0073   -5.4343   20.3162 C   0  0  0  0  0  0  0  0  0  0  0  0
   12.7979   -4.8251   19.0024 C   0  0  0  0  0  0  0  0  0  0  0  0
   13.4295   -3.4299   18.9457 C   0  0  0  0  0  0  0  0  0  0  0  0
   10.1623   -6.0438   20.2666 C   0  0  0  0  0  0  0  0  0  0  0  0
    9.1623   -5.4491   19.9829 O   0  0  0  0  0  0  0  0  0  0  0  0
   10.2680   -7.6951   20.8356 N   0  0  0  0  0  0  0  0  0  0  0  0
    9.2247   -8.7194   20.9944 C   0  0  0  0  0  0  0  0  0  0  0  0
    9.6960  -10.0639   20.8161 C   0  0  0  0  0  0  0  0  0  0  0  0
    9.3806  -10.1090   22.3690 C   0  0  0  0  0  0  0  0  0  0  0  0
    7.6528   -9.9277   22.8461 N   0  0  0  0  0  0  0  0  0  0  0  0
    7.1033  -11.2128   22.8712 C   0  0  0  0  0  0  0  0  0  0  0  0
    6.5621  -11.7206   21.8982 O   0  0  0  0  0  0  0  0  0  0  0  0
    7.1427  -11.9005   24.2970 C   0  0  0  0  0  0  0  0  0  0  0  0
    7.5149  -10.9836   25.3324 O   0  0  0  0  0  0  0  0  0  0  0  0
    5.8266  -12.5994   24.6008 C   0  0  0  0  0  0  0  0  0  0  0  0
    4.7056  -12.1457   25.2782 C   0  0  0  0  0  0  0  0  0  0  0  0
    3.7146  -13.0273   24.9569 N   0  0  0  0  0  0  0  0  0  0  0  0
    4.2793  -13.9662   24.1448 C   0  0  0  0  0  0  0  0  0  0  0  0
    5.5790  -13.8487   24.0859 N   0  0  0  0  0  0  0  0  0  0  0  0
    8.9846   -9.3114   22.5244 C   0  0  0  0  0  0  0  0  0  0  0  0
   14.4436   -5.9071   21.7575 H   0  0  0  0  0  0  0  0  0  0  0  0
   14.5243   -4.3473   22.5816 H   0  0  0  0  0  0  0  0  0  0  0  0
   14.7422   -4.4288   20.8418 H   0  0  0  0  0  0  0  0  0  0  0  0
   12.2810   -5.0523   22.5138 H   0  0  0  0  0  0  0  0  0  0  0  0
   12.4190   -3.6335   21.5265 H   0  0  0  0  0  0  0  0  0  0  0  0
   12.4868   -6.4075   20.4658 H   0  0  0  0  0  0  0  0  0  0  0  0
   13.6442   -5.4920   18.8442 H   0  0  0  0  0  0  0  0  0  0  0  0
   12.1954   -4.8357   18.0968 H   0  0  0  0  0  0  0  0  0  0  0  0
   12.9788   -2.8458   18.1366 H   0  0  0  0  0  0  0  0  0  0  0  0
   14.4922   -3.5111   18.6870 H   0  0  0  0  0  0  0  0  0  0  0  0
   13.3647   -2.8603   19.8690 H   0  0  0  0  0  0  0  0  0  0  0  0
   11.2326   -7.9092   21.0766 H   0  0  0  0  0  0  0  0  0  0  0  0
    8.2927   -8.4489   20.4899 H   0  0  0  0  0  0  0  0  0  0  0  0
    9.0411  -10.7105   20.2249 H   0  0  0  0  0  0  0  0  0  0  0  0
   10.7562  -10.2112   20.6027 H   0  0  0  0  0  0  0  0  0  0  0  0
    9.3000  -11.2730   22.3148 H   0  0  0  0  0  0  0  0  0  0  0  0
   10.2514  -10.4140   23.1709 H   0  0  0  0  0  0  0  0  0  0  0  0
    7.9342  -12.6576   24.2501 H   0  0  0  0  0  0  0  0  0  0  0  0
    6.9521  -10.2042   25.1741 H   0  0  0  0  0  0  0  0  0  0  0  0
    4.5064  -11.2357   25.8246 H   0  0  0  0  0  0  0  0  0  0  0  0
    2.7286  -12.9029   25.1482 H   0  0  0  0  0  0  0  0  0  0  0  0
    3.7184  -14.6905   23.5814 H   0  0  0  0  0  0  0  0  0  0  0  0
    8.3874   -8.3244   22.6724 H   0  0  0  0  0  0  0  0  0  0  0  0
    9.5367   -8.7121   23.4631 H   0  0  0  0  0  0  0  0  0  0  0  0
  1  2  1  0
  2  3  1  0
  3  4  1  0
  4  5  1  0
  3  6  1  0
  6  7  2  0
  6  8  1  0
  8  9  1  0
  9 10  1  0
 10 11  1  0
 11 12  1  0
 12 13  1  0
 13 14  2  0
 13 15  1  0
 15 16  1  0
 15 17  1  0
 17 18  2  0
 18 19  1  0
 19 20  1  0
 20 21  2  0
 12 22  1  0
 22  9  1  0
 21 17  1  0
  1 23  1  0
  1 24  1  0
  1 25  1  0
  2 26  1  0
  2 27  1  0
  3 28  1  0
  4 29  1  0
  4 30  1  0
  5 31  1  0
  5 32  1  0
  5 33  1  0
  8 34  1  0
  9 35  1  0
 10 36  1  0
 10 37  1  0
 11 38  1  0
 11 39  1  0
 15 40  1  0
 16 41  1  0
 18 42  1  0
 19 43  1  0
 20 44  1  0
 22 45  1  0
 22 46  1  0
M  END
>  <Energy>  (89) 
698.52222689881728

>  <compound_id>  (89) 
24516

>  <target_id>  (89) 
1

>  <reference_id>  (89) 
27

>  <inspiration_ids>  (89) 
[27, 35]

>  <energy_score>  (89) 
595.3502324027766

>  <distance_score>  (89) 
13.376013967238736

>  <path>  (89) 
/opt/xchem-fragalysis-2/maxwin/BulkDock/SCRATCH/511022/C24516-P27/C24516-P27.minimised.mol

>  <scratch_subdir>  (89) 
/opt/xchem-fragalysis-2/maxwin/BulkDock/SCRATCH/511022/C24516-P27

>  <fragmenstein_runtime>  (89) 
23.700626373291016

>  <fragmenstein_outcome>  (89) 
too moved

>  <fragmenstein_mode>  (89) 
expansion

>  <fragmenstein_error>  (89) 


$$$$
C24516-P35
     RDKit          3D

 46 47  0  0  0  0  0  0  0  0999 V2000
   12.1460   -8.7613   22.5326 C   0  0  0  0  0  0  0  0  0  0  0  0
   12.5479  -10.1966   22.2003 C   0  0  0  0  0  0  0  0  0  0  0  0
   11.4554  -11.2759   21.8865 C   0  0  0  0  0  0  0  0  0  0  0  0
   10.4769  -10.8855   20.7471 C   0  0  0  0  0  0  0  0  0  0  0  0
    9.5594   -9.6837   20.9374 C   0  0  0  0  0  0  0  0  0  0  0  0
   10.7618  -11.8599   23.1940 C   0  0  0  0  0  0  0  0  0  0  0  0
   10.2901  -11.0590   23.9532 O   0  0  0  0  0  0  0  0  0  0  0  0
   10.8870  -13.3202   23.3007 N   0  0  0  0  0  0  0  0  0  0  0  0
   10.5616  -14.2408   24.4128 C   0  0  0  0  0  0  0  0  0  0  0  0
   11.7285  -14.4405   25.2322 C   0  0  0  0  0  0  0  0  0  0  0  0
   11.5321  -15.9778   24.7575 C   0  0  0  0  0  0  0  0  0  0  0  0
   11.1736  -16.9176   25.7889 N   0  0  0  0  0  0  0  0  0  0  0  0
    9.9972  -17.5749   26.2184 C   0  0  0  0  0  0  0  0  0  0  0  0
    9.2395  -17.1050   27.0572 O   0  0  0  0  0  0  0  0  0  0  0  0
    9.7766  -19.0445   25.6202 C   0  0  0  0  0  0  0  0  0  0  0  0
   11.0196  -19.6829   25.3185 O   0  0  0  0  0  0  0  0  0  0  0  0
    8.8483  -20.0349   26.4256 C   0  0  0  0  0  0  0  0  0  0  0  0
    8.5503  -20.1704   27.7747 C   0  0  0  0  0  0  0  0  0  0  0  0
    7.5891  -21.1547   27.8801 N   0  0  0  0  0  0  0  0  0  0  0  0
    7.3430  -21.6259   26.6249 C   0  0  0  0  0  0  0  0  0  0  0  0
    8.0822  -20.9906   25.7347 N   0  0  0  0  0  0  0  0  0  0  0  0
   10.7070  -15.8676   24.3067 C   0  0  0  0  0  0  0  0  0  0  0  0
   11.9106   -8.1885   21.6399 H   0  0  0  0  0  0  0  0  0  0  0  0
   12.9857   -8.2492   23.0153 H   0  0  0  0  0  0  0  0  0  0  0  0
   11.2974   -8.7286   23.2202 H   0  0  0  0  0  0  0  0  0  0  0  0
   13.2492  -10.1643   21.3572 H   0  0  0  0  0  0  0  0  0  0  0  0
   13.1297  -10.5734   23.0526 H   0  0  0  0  0  0  0  0  0  0  0  0
   12.0369  -12.1159   21.4784 H   0  0  0  0  0  0  0  0  0  0  0  0
   11.0492  -10.7456   19.8228 H   0  0  0  0  0  0  0  0  0  0  0  0
    9.8305  -11.7554   20.5699 H   0  0  0  0  0  0  0  0  0  0  0  0
    9.0548   -9.7193   21.9069 H   0  0  0  0  0  0  0  0  0  0  0  0
    8.7853   -9.6861   20.1624 H   0  0  0  0  0  0  0  0  0  0  0  0
   10.0841   -8.7369   20.8516 H   0  0  0  0  0  0  0  0  0  0  0  0
   11.2646  -13.6851   22.4337 H   0  0  0  0  0  0  0  0  0  0  0  0
    9.6889  -13.8919   24.9734 H   0  0  0  0  0  0  0  0  0  0  0  0
   11.5796  -14.3096   26.3090 H   0  0  0  0  0  0  0  0  0  0  0  0
   12.6641  -13.9988   24.8720 H   0  0  0  0  0  0  0  0  0  0  0  0
   12.3406  -16.4173   23.9114 H   0  0  0  0  0  0  0  0  0  0  0  0
   12.5695  -16.0813   25.2730 H   0  0  0  0  0  0  0  0  0  0  0  0
    9.2826  -18.8784   24.6553 H   0  0  0  0  0  0  0  0  0  0  0  0
   11.4531  -19.8206   26.1783 H   0  0  0  0  0  0  0  0  0  0  0  0
    8.8994  -19.6274   28.6430 H   0  0  0  0  0  0  0  0  0  0  0  0
    7.1576  -21.4806   28.7338 H   0  0  0  0  0  0  0  0  0  0  0  0
    6.6276  -22.4114   26.4119 H   0  0  0  0  0  0  0  0  0  0  0  0
   10.5853  -16.3963   23.2387 H   0  0  0  0  0  0  0  0  0  0  0  0
    9.5650  -16.0474   24.4352 H   0  0  0  0  0  0  0  0  0  0  0  0
  1  2  1  0
  2  3  1  0
  3  4  1  0
  4  5  1  0
  3  6  1  0
  6  7  2  0
  6  8  1  0
  8  9  1  0
  9 10  1  0
 10 11  1  0
 11 12  1  0
 12 13  1  0
 13 14  2  0
 13 15  1  0
 15 16  1  0
 15 17  1  0
 17 18  2  0
 18 19  1  0
 19 20  1  0
 20 21  2  0
 12 22  1  0
 22  9  1  0
 21 17  1  0
  1 23  1  0
  1 24  1  0
  1 25  1  0
  2 26  1  0
  2 27  1  0
  3 28  1  0
  4 29  1  0
  4 30  1  0
  5 31  1  0
  5 32  1  0
  5 33  1  0
  8 34  1  0
  9 35  1  0
 10 36  1  0
 10 37  1  0
 11 38  1  0
 11 39  1  0
 15 40  1  0
 16 41  1  0
 18 42  1  0
 19 43  1  0
 20 44  1  0
 22 45  1  0
 22 46  1  0
M  END
>  <Energy>  (90) 
627.0290027709292

>  <compound_id>  (90) 
24516

>  <target_id>  (90) 
1

>  <reference_id>  (90) 
35

>  <inspiration_ids>  (90) 
[27, 35]

>  <energy_score>  (90) 
523.8570082749004

>  <distance_score>  (90) 
14.866150958337204

>  <path>  (90) 
/opt/xchem-fragalysis-2/maxwin/BulkDock/SCRATCH/511022/C24516-P35/C24516-P35.minimised.mol

>  <scratch_subdir>  (90) 
/opt/xchem-fragalysis-2/maxwin/BulkDock/SCRATCH/511022/C24516-P35

>  <fragmenstein_runtime>  (90) 
42.54107666015625

>  <fragmenstein_outcome>  (90) 
too moved

>  <fragmenstein_mode>  (90) 
expansion

>  <fragmenstein_error>  (90) 


$$$$
C23873-P27
     RDKit          3D

 45 46  0  0  0  0  0  0  0  0999 V2000
   11.4136   -8.5399   22.1521 C   0  0  0  0  0  0  0  0  0  0  0  0
    9.9457   -8.6390   21.7595 C   0  0  0  0  0  0  0  0  0  0  0  0
    9.3055   -7.8218   20.5818 C   0  0  0  0  0  0  0  0  0  0  0  0
    9.8918   -6.0748   20.1695 C   0  0  0  0  0  0  0  0  0  0  0  0
   11.7005   -5.5984   20.3111 C   0  0  0  0  0  0  0  0  0  0  0  0
    7.6463   -7.7574   20.6750 C   0  0  0  0  0  0  0  0  0  0  0  0
    7.1659   -6.7561   20.2160 O   0  0  0  0  0  0  0  0  0  0  0  0
    7.0142   -8.9192   21.2810 N   0  0  0  0  0  0  0  0  0  0  0  0
    5.6058   -9.1876   21.6086 C   0  0  0  0  0  0  0  0  0  0  0  0
    4.7775   -9.4254   20.4589 C   0  0  0  0  0  0  0  0  0  0  0  0
    4.5612  -10.8243   21.2041 C   0  0  0  0  0  0  0  0  0  0  0  0
    3.7225  -10.8389   22.7910 N   0  0  0  0  0  0  0  0  0  0  0  0
    2.3458  -11.0159   22.5242 C   0  0  0  0  0  0  0  0  0  0  0  0
    1.5681  -10.0826   22.3618 O   0  0  0  0  0  0  0  0  0  0  0  0
    1.8443  -12.4915   22.5619 C   0  0  0  0  0  0  0  0  0  0  0  0
    0.4809  -12.7501   23.2350 C   0  0  0  0  0  0  0  0  0  0  0  0
    0.0169  -12.5530   24.5271 C   0  0  0  0  0  0  0  0  0  0  0  0
   -1.2697  -13.0230   24.6998 N   0  0  0  0  0  0  0  0  0  0  0  0
   -1.6249  -13.4775   23.5255 C   0  0  0  0  0  0  0  0  0  0  0  0
   -0.6117  -13.3361   22.6101 N   0  0  0  0  0  0  0  0  0  0  0  0
    5.0392  -10.7024   21.9560 C   0  0  0  0  0  0  0  0  0  0  0  0
   11.7362   -9.5087   22.5540 H   0  0  0  0  0  0  0  0  0  0  0  0
   12.0825   -8.3085   21.3408 H   0  0  0  0  0  0  0  0  0  0  0  0
   11.5860   -7.8311   22.9657 H   0  0  0  0  0  0  0  0  0  0  0  0
    9.3498   -8.5151   22.6740 H   0  0  0  0  0  0  0  0  0  0  0  0
    9.7920   -9.6968   21.4959 H   0  0  0  0  0  0  0  0  0  0  0  0
    9.5039   -8.4901   19.7541 H   0  0  0  0  0  0  0  0  0  0  0  0
    9.8280   -5.9769   19.1313 H   0  0  0  0  0  0  0  0  0  0  0  0
    9.1281   -5.3199   20.3814 H   0  0  0  0  0  0  0  0  0  0  0  0
   12.3077   -6.4329   20.6727 H   0  0  0  0  0  0  0  0  0  0  0  0
   12.1451   -5.2955   19.3573 H   0  0  0  0  0  0  0  0  0  0  0  0
   11.9203   -4.7704   20.9916 H   0  0  0  0  0  0  0  0  0  0  0  0
    7.7309   -9.5386   21.6330 H   0  0  0  0  0  0  0  0  0  0  0  0
    5.2218   -8.4126   22.2819 H   0  0  0  0  0  0  0  0  0  0  0  0
    5.2784   -9.5465   19.4947 H   0  0  0  0  0  0  0  0  0  0  0  0
    3.8673   -8.8208   20.4058 H   0  0  0  0  0  0  0  0  0  0  0  0
    4.7740  -11.8749   20.6154 H   0  0  0  0  0  0  0  0  0  0  0  0
    3.5557  -10.9480   20.6258 H   0  0  0  0  0  0  0  0  0  0  0  0
    2.5948  -13.0992   23.0803 H   0  0  0  0  0  0  0  0  0  0  0  0
    1.8017  -12.8383   21.5225 H   0  0  0  0  0  0  0  0  0  0  0  0
    0.5556  -12.1074   25.3547 H   0  0  0  0  0  0  0  0  0  0  0  0
   -2.5799  -13.9129   23.2640 H   0  0  0  0  0  0  0  0  0  0  0  0
   -0.6777  -13.6290   21.6447 H   0  0  0  0  0  0  0  0  0  0  0  0
    5.8818  -11.5981   22.1207 H   0  0  0  0  0  0  0  0  0  0  0  0
    5.5164  -10.4933   23.0005 H   0  0  0  0  0  0  0  0  0  0  0  0
  1  2  1  0
  2  3  1  0
  3  4  1  0
  4  5  1  0
  3  6  1  0
  6  7  2  0
  6  8  1  0
  8  9  1  0
  9 10  1  0
 10 11  1  0
 11 12  1  0
 12 13  1  0
 13 14  2  0
 13 15  1  0
 15 16  1  0
 16 17  2  0
 17 18  1  0
 18 19  2  0
 19 20  1  0
 12 21  1  0
 21  9  1  0
 20 16  1  0
  1 22  1  0
  1 23  1  0
  1 24  1  0
  2 25  1  0
  2 26  1  0
  3 27  1  0
  4 28  1  0
  4 29  1  0
  5 30  1  0
  5 31  1  0
  5 32  1  0
  8 33  1  0
  9 34  1  0
 10 35  1  0
 10 36  1  0
 11 37  1  0
 11 38  1  0
 15 39  1  0
 15 40  1  0
 17 41  1  0
 19 42  1  0
 20 43  1  0
 21 44  1  0
 21 45  1  0
M  END
>  <Energy>  (91) 
643.24256163683685

>  <compound_id>  (91) 
23873

>  <target_id>  (91) 
1

>  <reference_id>  (91) 
27

>  <inspiration_ids>  (91) 
[27, 35]

>  <energy_score>  (91) 
599.8379853571854

>  <distance_score>  (91) 
13.431475719823748

>  <path>  (91) 
/opt/xchem-fragalysis-2/maxwin/BulkDock/SCRATCH/511022/C23873-P27/C23873-P27.minimised.mol

>  <scratch_subdir>  (91) 
/opt/xchem-fragalysis-2/maxwin/BulkDock/SCRATCH/511022/C23873-P27

>  <fragmenstein_runtime>  (91) 
18.880728006362915

>  <fragmenstein_outcome>  (91) 
too moved

>  <fragmenstein_mode>  (91) 
expansion

>  <fragmenstein_error>  (91) 


$$$$
C23873-P35
     RDKit          3D

 45 46  0  0  0  0  0  0  0  0999 V2000
   13.3022   -5.9524   23.3066 C   0  0  0  0  0  0  0  0  0  0  0  0
   13.6615   -7.2478   24.0444 C   0  0  0  0  0  0  0  0  0  0  0  0
   12.7905   -8.5148   23.7407 C   0  0  0  0  0  0  0  0  0  0  0  0
   12.7939   -8.8272   22.2269 C   0  0  0  0  0  0  0  0  0  0  0  0
   14.1879   -8.8545   21.5952 C   0  0  0  0  0  0  0  0  0  0  0  0
   13.2654   -9.7896   24.5682 C   0  0  0  0  0  0  0  0  0  0  0  0
   14.4066   -9.8050   24.9388 O   0  0  0  0  0  0  0  0  0  0  0  0
   12.2156  -10.8020   24.6763 N   0  0  0  0  0  0  0  0  0  0  0  0
   12.2582  -12.1933   25.1858 C   0  0  0  0  0  0  0  0  0  0  0  0
   13.3146  -12.4105   26.2726 C   0  0  0  0  0  0  0  0  0  0  0  0
   12.9447  -13.7720   26.8746 C   0  0  0  0  0  0  0  0  0  0  0  0
   11.4963  -13.8348   26.8117 N   0  0  0  0  0  0  0  0  0  0  0  0
   10.7584  -14.7480   27.5756 C   0  0  0  0  0  0  0  0  0  0  0  0
   10.3651  -14.4425   28.7039 O   0  0  0  0  0  0  0  0  0  0  0  0
   10.5650  -16.1723   26.9901 C   0  0  0  0  0  0  0  0  0  0  0  0
    9.9305  -17.2528   27.9003 C   0  0  0  0  0  0  0  0  0  0  0  0
    9.5757  -18.5791   27.6654 C   0  0  0  0  0  0  0  0  0  0  0  0
    9.0873  -19.1976   28.7894 N   0  0  0  0  0  0  0  0  0  0  0  0
    9.2067  -18.2994   29.7343 C   0  0  0  0  0  0  0  0  0  0  0  0
    9.6299  -17.0935   29.2352 N   0  0  0  0  0  0  0  0  0  0  0  0
   10.9860  -12.8233   25.8574 C   0  0  0  0  0  0  0  0  0  0  0  0
   14.0397   -5.1786   23.5444 H   0  0  0  0  0  0  0  0  0  0  0  0
   13.2888   -6.0749   22.2219 H   0  0  0  0  0  0  0  0  0  0  0  0
   12.3306   -5.5859   23.6432 H   0  0  0  0  0  0  0  0  0  0  0  0
   13.6039   -7.0518   25.1232 H   0  0  0  0  0  0  0  0  0  0  0  0
   14.7181   -7.4705   23.8508 H   0  0  0  0  0  0  0  0  0  0  0  0
   11.7613   -8.2992   24.0557 H   0  0  0  0  0  0  0  0  0  0  0  0
   12.1735   -8.0911   21.7098 H   0  0  0  0  0  0  0  0  0  0  0  0
   12.3220   -9.8027   22.0591 H   0  0  0  0  0  0  0  0  0  0  0  0
   14.5691   -7.8478   21.4048 H   0  0  0  0  0  0  0  0  0  0  0  0
   14.1824   -9.3997   20.6483 H   0  0  0  0  0  0  0  0  0  0  0  0
   14.9039   -9.3740   22.2399 H   0  0  0  0  0  0  0  0  0  0  0  0
   11.3938  -10.4816   24.1780 H   0  0  0  0  0  0  0  0  0  0  0  0
   12.5231  -12.8114   24.3181 H   0  0  0  0  0  0  0  0  0  0  0  0
   14.3378  -12.4021   25.8853 H   0  0  0  0  0  0  0  0  0  0  0  0
   13.2344  -11.6313   27.0410 H   0  0  0  0  0  0  0  0  0  0  0  0
   13.3405  -14.5914   26.2646 H   0  0  0  0  0  0  0  0  0  0  0  0
   13.2944  -13.8964   27.9035 H   0  0  0  0  0  0  0  0  0  0  0  0
   11.5541  -16.5414   26.6927 H   0  0  0  0  0  0  0  0  0  0  0  0
    9.9631  -16.0636   26.0835 H   0  0  0  0  0  0  0  0  0  0  0  0
    9.6688  -19.1251   26.7355 H   0  0  0  0  0  0  0  0  0  0  0  0
    8.9873  -18.4393   30.7837 H   0  0  0  0  0  0  0  0  0  0  0  0
    9.7416  -16.2288   29.7546 H   0  0  0  0  0  0  0  0  0  0  0  0
   10.4224  -12.0788   26.4295 H   0  0  0  0  0  0  0  0  0  0  0  0
   10.3169  -13.2978   25.1341 H   0  0  0  0  0  0  0  0  0  0  0  0
  1  2  1  0
  2  3  1  0
  3  4  1  0
  4  5  1  0
  3  6  1  0
  6  7  2  0
  6  8  1  0
  8  9  1  0
  9 10  1  0
 10 11  1  0
 11 12  1  0
 12 13  1  0
 13 14  2  0
 13 15  1  0
 15 16  1  0
 16 17  2  0
 17 18  1  0
 18 19  2  0
 19 20  1  0
 12 21  1  0
 21  9  1  0
 20 16  1  0
  1 22  1  0
  1 23  1  0
  1 24  1  0
  2 25  1  0
  2 26  1  0
  3 27  1  0
  4 28  1  0
  4 29  1  0
  5 30  1  0
  5 31  1  0
  5 32  1  0
  8 33  1  0
  9 34  1  0
 10 35  1  0
 10 36  1  0
 11 37  1  0
 11 38  1  0
 15 39  1  0
 15 40  1  0
 17 41  1  0
 19 42  1  0
 20 43  1  0
 21 44  1  0
 21 45  1  0
M  END
>  <Energy>  (92) 
49.766111962712756

>  <compound_id>  (92) 
23873

>  <target_id>  (92) 
1

>  <reference_id>  (92) 
35

>  <inspiration_ids>  (92) 
[27, 35]

>  <energy_score>  (92) 
6.361535683066791

>  <distance_score>  (92) 
14.63796038370074

>  <path>  (92) 
/opt/xchem-fragalysis-2/maxwin/BulkDock/SCRATCH/511022/C23873-P35/C23873-P35.minimised.mol

>  <scratch_subdir>  (92) 
/opt/xchem-fragalysis-2/maxwin/BulkDock/SCRATCH/511022/C23873-P35

>  <fragmenstein_runtime>  (92) 
23.948211193084717

>  <fragmenstein_outcome>  (92) 
too moved

>  <fragmenstein_mode>  (92) 
expansion

>  <fragmenstein_error>  (92) 


$$$$
C73146-P27
     RDKit          3D

 46 47  0  0  0  0  0  0  0  0999 V2000
   14.5452   -9.5065   21.2387 C   0  0  0  0  0  0  0  0  0  0  0  0
   13.2975  -10.0178   21.9623 C   0  0  0  0  0  0  0  0  0  0  0  0
   12.9045   -9.2031   23.1995 C   0  0  0  0  0  0  0  0  0  0  0  0
   12.3420   -7.8293   22.8246 C   0  0  0  0  0  0  0  0  0  0  0  0
   13.3377   -6.7664   22.3516 C   0  0  0  0  0  0  0  0  0  0  0  0
   11.9420   -9.9625   24.2086 C   0  0  0  0  0  0  0  0  0  0  0  0
   12.3919  -10.1707   25.3011 O   0  0  0  0  0  0  0  0  0  0  0  0
   10.6184  -10.2097   23.6690 N   0  0  0  0  0  0  0  0  0  0  0  0
    9.4110  -10.8984   24.2759 C   0  0  0  0  0  0  0  0  0  0  0  0
    8.5100   -9.7092   24.5570 C   0  0  0  0  0  0  0  0  0  0  0  0
    7.2928  -11.3195   25.0227 N   0  0  0  0  0  0  0  0  0  0  0  0
    6.3772  -11.4183   26.3181 C   0  0  0  0  0  0  0  0  0  0  0  0
    6.1177  -10.6359   27.1521 O   0  0  0  0  0  0  0  0  0  0  0  0
    5.8160  -12.9514   26.5013 C   0  0  0  0  0  0  0  0  0  0  0  0
    7.1161  -13.5075   26.0875 O   0  0  0  0  0  0  0  0  0  0  0  0
    4.4244  -14.2216   26.1238 C   0  0  0  0  0  0  0  0  0  0  0  0
    3.6902  -15.3921   27.3923 C   0  0  0  0  0  0  0  0  0  0  0  0
    3.3556  -16.7668   27.1203 C   0  0  0  0  0  0  0  0  0  0  0  0
    2.1125  -17.1338   27.4724 N   0  0  0  0  0  0  0  0  0  0  0  0
    1.6582  -16.2380   28.2643 C   0  0  0  0  0  0  0  0  0  0  0  0
    2.3776  -15.1420   28.0021 N   0  0  0  0  0  0  0  0  0  0  0  0
    7.9169  -10.3489   24.4415 C   0  0  0  0  0  0  0  0  0  0  0  0
   14.4199   -8.5281   20.7878 H   0  0  0  0  0  0  0  0  0  0  0  0
   15.3952   -9.4576   21.9272 H   0  0  0  0  0  0  0  0  0  0  0  0
   14.8112  -10.2016   20.4351 H   0  0  0  0  0  0  0  0  0  0  0  0
   12.4555  -10.0967   21.2687 H   0  0  0  0  0  0  0  0  0  0  0  0
   13.5023  -11.0477   22.2831 H   0  0  0  0  0  0  0  0  0  0  0  0
   13.8219   -9.0348   23.7832 H   0  0  0  0  0  0  0  0  0  0  0  0
   11.5812   -7.9970   22.0566 H   0  0  0  0  0  0  0  0  0  0  0  0
   11.8406   -7.4314   23.7148 H   0  0  0  0  0  0  0  0  0  0  0  0
   12.9975   -5.7687   22.6497 H   0  0  0  0  0  0  0  0  0  0  0  0
   13.4237   -6.7518   21.2645 H   0  0  0  0  0  0  0  0  0  0  0  0
   14.3277   -6.9160   22.7923 H   0  0  0  0  0  0  0  0  0  0  0  0
   10.6174   -9.9849   22.6803 H   0  0  0  0  0  0  0  0  0  0  0  0
    9.2733  -11.8030   23.6688 H   0  0  0  0  0  0  0  0  0  0  0  0
    8.4159   -8.8286   23.7083 H   0  0  0  0  0  0  0  0  0  0  0  0
    8.8073   -9.1575   25.5560 H   0  0  0  0  0  0  0  0  0  0  0  0
    5.7187  -12.9105   27.5930 H   0  0  0  0  0  0  0  0  0  0  0  0
    7.7566  -13.2930   26.7938 H   0  0  0  0  0  0  0  0  0  0  0  0
    3.6505  -13.9294   25.4277 H   0  0  0  0  0  0  0  0  0  0  0  0
    4.9011  -14.8898   25.4001 H   0  0  0  0  0  0  0  0  0  0  0  0
    3.4334  -17.2886   26.1755 H   0  0  0  0  0  0  0  0  0  0  0  0
    1.7414  -18.0412   27.3430 H   0  0  0  0  0  0  0  0  0  0  0  0
    0.8717  -16.4091   28.9915 H   0  0  0  0  0  0  0  0  0  0  0  0
    7.6410  -10.7516   23.2813 H   0  0  0  0  0  0  0  0  0  0  0  0
    6.8737   -9.7145   23.9952 H   0  0  0  0  0  0  0  0  0  0  0  0
  1  2  1  0
  2  3  1  0
  3  4  1  0
  4  5  1  0
  3  6  1  0
  6  7  2  0
  6  8  1  0
  8  9  1  0
  9 10  1  0
 10 11  1  0
 11 12  1  0
 12 13  2  0
 12 14  1  0
 14 15  1  0
 14 16  1  0
 16 17  1  0
 17 18  2  0
 18 19  1  0
 19 20  1  0
 20 21  2  0
 11 22  1  0
 22  9  1  0
 21 17  1  0
  1 23  1  0
  1 24  1  0
  1 25  1  0
  2 26  1  0
  2 27  1  0
  3 28  1  0
  4 29  1  0
  4 30  1  0
  5 31  1  0
  5 32  1  0
  5 33  1  0
  8 34  1  0
  9 35  1  0
 10 36  1  0
 10 37  1  0
 14 38  1  0
 15 39  1  0
 16 40  1  0
 16 41  1  0
 18 42  1  0
 19 43  1  0
 20 44  1  0
 22 45  1  0
 22 46  1  0
M  END
>  <Energy>  (93) 
865.05839384685544

>  <compound_id>  (93) 
73146

>  <target_id>  (93) 
1

>  <reference_id>  (93) 
27

>  <inspiration_ids>  (93) 
[27, 35]

>  <energy_score>  (93) 
788.79161136949

>  <distance_score>  (93) 
13.029906736668377

>  <path>  (93) 
/opt/xchem-fragalysis-2/maxwin/BulkDock/SCRATCH/511022/C73146-P27/C73146-P27.minimised.mol

>  <scratch_subdir>  (93) 
/opt/xchem-fragalysis-2/maxwin/BulkDock/SCRATCH/511022/C73146-P27

>  <fragmenstein_runtime>  (93) 
29.911935091018677

>  <fragmenstein_outcome>  (93) 
too moved

>  <fragmenstein_mode>  (93) 
expansion

>  <fragmenstein_error>  (93) 


$$$$
C73146-P35
     RDKit          3D

 46 47  0  0  0  0  0  0  0  0999 V2000
   12.3383   -7.8172   23.8977 C   0  0  0  0  0  0  0  0  0  0  0  0
   11.0098   -8.4138   24.3767 C   0  0  0  0  0  0  0  0  0  0  0  0
   10.3186   -9.4676   23.4708 C   0  0  0  0  0  0  0  0  0  0  0  0
   10.6193   -9.2304   21.9530 C   0  0  0  0  0  0  0  0  0  0  0  0
   10.1178  -10.3212   21.0170 C   0  0  0  0  0  0  0  0  0  0  0  0
    8.7672   -9.5631   23.7713 C   0  0  0  0  0  0  0  0  0  0  0  0
    8.0137   -9.1944   22.9147 O   0  0  0  0  0  0  0  0  0  0  0  0
    8.5043  -10.1969   25.0594 N   0  0  0  0  0  0  0  0  0  0  0  0
    7.2022  -10.6846   25.6832 C   0  0  0  0  0  0  0  0  0  0  0  0
    6.7901  -12.0754   26.0200 C   0  0  0  0  0  0  0  0  0  0  0  0
    5.8893  -12.8999   26.5490 N   0  0  0  0  0  0  0  0  0  0  0  0
    4.6053  -14.0392   25.9274 C   0  0  0  0  0  0  0  0  0  0  0  0
    4.3205  -14.3891   24.8652 O   0  0  0  0  0  0  0  0  0  0  0  0
    3.7353  -14.8147   27.3073 C   0  0  0  0  0  0  0  0  0  0  0  0
    2.5723  -13.9895   27.1535 O   0  0  0  0  0  0  0  0  0  0  0  0
    2.9065  -16.4526   27.6361 C   0  0  0  0  0  0  0  0  0  0  0  0
    1.6774  -16.8134   28.6775 C   0  0  0  0  0  0  0  0  0  0  0  0
    1.9585  -17.2088   30.0886 C   0  0  0  0  0  0  0  0  0  0  0  0
    0.8211  -17.4721   30.6274 N   0  0  0  0  0  0  0  0  0  0  0  0
    0.3732  -16.3084   30.2297 C   0  0  0  0  0  0  0  0  0  0  0  0
    0.5278  -16.3963   28.8663 N   0  0  0  0  0  0  0  0  0  0  0  0
    7.3095  -12.1006   25.2733 C   0  0  0  0  0  0  0  0  0  0  0  0
   13.0896   -8.6077   23.7973 H   0  0  0  0  0  0  0  0  0  0  0  0
   12.2704   -7.2979   22.9448 H   0  0  0  0  0  0  0  0  0  0  0  0
   12.7091   -7.1026   24.6400 H   0  0  0  0  0  0  0  0  0  0  0  0
   11.2093   -8.9019   25.3412 H   0  0  0  0  0  0  0  0  0  0  0  0
   10.3065   -7.6205   24.6363 H   0  0  0  0  0  0  0  0  0  0  0  0
   10.7431  -10.4513   23.7171 H   0  0  0  0  0  0  0  0  0  0  0  0
   10.1909   -8.2973   21.6068 H   0  0  0  0  0  0  0  0  0  0  0  0
   11.7032   -9.1759   21.8135 H   0  0  0  0  0  0  0  0  0  0  0  0
   10.4588  -11.3055   21.3539 H   0  0  0  0  0  0  0  0  0  0  0  0
   10.4998  -10.1686   20.0058 H   0  0  0  0  0  0  0  0  0  0  0  0
    9.0267  -10.3422   20.9562 H   0  0  0  0  0  0  0  0  0  0  0  0
    9.3891  -10.4481   25.4926 H   0  0  0  0  0  0  0  0  0  0  0  0
    6.4327  -10.0763   25.2183 H   0  0  0  0  0  0  0  0  0  0  0  0
    6.2490  -11.3869   26.8414 H   0  0  0  0  0  0  0  0  0  0  0  0
    7.6085  -12.3248   26.9918 H   0  0  0  0  0  0  0  0  0  0  0  0
    4.0652  -15.5618   26.5996 H   0  0  0  0  0  0  0  0  0  0  0  0
    2.5828  -13.4653   26.3345 H   0  0  0  0  0  0  0  0  0  0  0  0
    2.7670  -17.0862   26.7527 H   0  0  0  0  0  0  0  0  0  0  0  0
    3.7339  -16.9396   28.1441 H   0  0  0  0  0  0  0  0  0  0  0  0
    2.9462  -17.4623   30.4198 H   0  0  0  0  0  0  0  0  0  0  0  0
    0.3907  -18.3856   30.6110 H   0  0  0  0  0  0  0  0  0  0  0  0
   -0.3322  -15.6640   30.7539 H   0  0  0  0  0  0  0  0  0  0  0  0
    6.9862  -12.1703   24.1700 H   0  0  0  0  0  0  0  0  0  0  0  0
    8.3242  -12.7278   25.2525 H   0  0  0  0  0  0  0  0  0  0  0  0
  1  2  1  0
  2  3  1  0
  3  4  1  0
  4  5  1  0
  3  6  1  0
  6  7  2  0
  6  8  1  0
  8  9  1  0
  9 10  1  0
 10 11  1  0
 11 12  1  0
 12 13  2  0
 12 14  1  0
 14 15  1  0
 14 16  1  0
 16 17  1  0
 17 18  2  0
 18 19  1  0
 19 20  1  0
 20 21  2  0
 11 22  1  0
 22  9  1  0
 21 17  1  0
  1 23  1  0
  1 24  1  0
  1 25  1  0
  2 26  1  0
  2 27  1  0
  3 28  1  0
  4 29  1  0
  4 30  1  0
  5 31  1  0
  5 32  1  0
  5 33  1  0
  8 34  1  0
  9 35  1  0
 10 36  1  0
 10 37  1  0
 14 38  1  0
 15 39  1  0
 16 40  1  0
 16 41  1  0
 18 42  1  0
 19 43  1  0
 20 44  1  0
 22 45  1  0
 22 46  1  0
M  END
>  <Energy>  (94) 
950.65905232453099

>  <compound_id>  (94) 
73146

>  <target_id>  (94) 
1

>  <reference_id>  (94) 
35

>  <inspiration_ids>  (94) 
[27, 35]

>  <energy_score>  (94) 
874.3922698471631

>  <distance_score>  (94) 
13.254578207623007

>  <path>  (94) 
/opt/xchem-fragalysis-2/maxwin/BulkDock/SCRATCH/511022/C73146-P35/C73146-P35.minimised.mol

>  <scratch_subdir>  (94) 
/opt/xchem-fragalysis-2/maxwin/BulkDock/SCRATCH/511022/C73146-P35

>  <fragmenstein_runtime>  (94) 
33.9205584526062

>  <fragmenstein_outcome>  (94) 
too moved

>  <fragmenstein_mode>  (94) 
expansion

>  <fragmenstein_error>  (94) 


$$$$
C23874-P27
     RDKit          3D

 49 50  0  0  0  0  0  0  0  0999 V2000
   11.1150   -8.5733   26.2101 C   0  0  0  0  0  0  0  0  0  0  0  0
    9.8893   -9.5063   26.2461 C   0  0  0  0  0  0  0  0  0  0  0  0
    8.9661   -9.7871   24.9627 C   0  0  0  0  0  0  0  0  0  0  0  0
    9.1316   -8.5393   24.1583 C   0  0  0  0  0  0  0  0  0  0  0  0
   10.4943   -8.5929   23.4042 C   0  0  0  0  0  0  0  0  0  0  0  0
    7.5776  -10.3199   25.5614 C   0  0  0  0  0  0  0  0  0  0  0  0
    6.9726   -9.5522   26.2701 O   0  0  0  0  0  0  0  0  0  0  0  0
    7.3082  -11.7667   25.2259 N   0  0  0  0  0  0  0  0  0  0  0  0
    6.1470  -12.8494   25.8314 C   0  0  0  0  0  0  0  0  0  0  0  0
    4.8563  -14.3972   25.2752 C   0  0  0  0  0  0  0  0  0  0  0  0
    4.4114  -16.0778   24.4371 N   0  0  0  0  0  0  0  0  0  0  0  0
    3.5030  -17.6396   25.1291 C   0  0  0  0  0  0  0  0  0  0  0  0
    3.0598  -17.6221   26.2536 O   0  0  0  0  0  0  0  0  0  0  0  0
    3.0587  -19.0861   24.3756 C   0  0  0  0  0  0  0  0  0  0  0  0
    3.6087  -20.2953   24.7141 C   0  0  0  0  0  0  0  0  0  0  0  0
    2.8516  -21.5414   24.3427 N   0  0  0  0  0  0  0  0  0  0  0  0
    1.7693  -21.0973   23.8017 C   0  0  0  0  0  0  0  0  0  0  0  0
    1.6958  -19.8209   24.2442 N   0  0  0  0  0  0  0  0  0  0  0  0
    7.6200  -13.4486   26.2405 C   0  0  0  0  0  0  0  0  0  0  0  0
    8.5655  -12.7563   27.2311 C   0  0  0  0  0  0  0  0  0  0  0  0
    8.2647  -11.4931   27.7325 O   0  0  0  0  0  0  0  0  0  0  0  0
    6.9744  -11.4639   28.2635 C   0  0  0  0  0  0  0  0  0  0  0  0
    5.9023  -12.1200   27.3429 C   0  0  0  0  0  0  0  0  0  0  0  0
   11.8990   -8.9593   25.5545 H   0  0  0  0  0  0  0  0  0  0  0  0
   10.8621   -7.5399   25.9624 H   0  0  0  0  0  0  0  0  0  0  0  0
   11.5542   -8.5428   27.2150 H   0  0  0  0  0  0  0  0  0  0  0  0
   10.2590  -10.4768   26.5954 H   0  0  0  0  0  0  0  0  0  0  0  0
    9.2549   -9.1208   27.0547 H   0  0  0  0  0  0  0  0  0  0  0  0
    9.4448  -10.6519   24.4907 H   0  0  0  0  0  0  0  0  0  0  0  0
    8.2475   -8.5313   23.5605 H   0  0  0  0  0  0  0  0  0  0  0  0
    9.0456   -7.6326   24.7671 H   0  0  0  0  0  0  0  0  0  0  0  0
   10.4204   -8.4154   22.3394 H   0  0  0  0  0  0  0  0  0  0  0  0
   10.9956   -9.5615   23.5103 H   0  0  0  0  0  0  0  0  0  0  0  0
   11.1930   -7.8399   23.7783 H   0  0  0  0  0  0  0  0  0  0  0  0
    7.9776  -12.0780   24.5285 H   0  0  0  0  0  0  0  0  0  0  0  0
    5.6495  -15.0700   25.4495 H   0  0  0  0  0  0  0  0  0  0  0  0
    4.1764  -14.4450   26.1279 H   0  0  0  0  0  0  0  0  0  0  0  0
    4.6305  -16.2306   23.4947 H   0  0  0  0  0  0  0  0  0  0  0  0
    4.4727  -20.4436   25.3669 H   0  0  0  0  0  0  0  0  0  0  0  0
    0.9841  -21.6277   23.2867 H   0  0  0  0  0  0  0  0  0  0  0  0
    0.8875  -19.2452   24.0863 H   0  0  0  0  0  0  0  0  0  0  0  0
    7.4841  -14.4493   26.4970 H   0  0  0  0  0  0  0  0  0  0  0  0
    8.2862  -13.6248   25.3694 H   0  0  0  0  0  0  0  0  0  0  0  0
    8.6720  -13.4022   28.0964 H   0  0  0  0  0  0  0  0  0  0  0  0
    9.5143  -12.6278   26.7037 H   0  0  0  0  0  0  0  0  0  0  0  0
    6.7161  -10.4145   28.4599 H   0  0  0  0  0  0  0  0  0  0  0  0
    6.9794  -11.8702   29.2795 H   0  0  0  0  0  0  0  0  0  0  0  0
    5.3976  -11.1828   27.1669 H   0  0  0  0  0  0  0  0  0  0  0  0
    5.2553  -12.7438   27.9581 H   0  0  0  0  0  0  0  0  0  0  0  0
  1  2  1  0
  2  3  1  0
  3  4  1  0
  4  5  1  0
  3  6  1  0
  6  7  2  0
  6  8  1  0
  8  9  1  0
  9 10  1  0
 10 11  1  0
 11 12  1  0
 12 13  2  0
 12 14  1  0
 14 15  2  0
 15 16  1  0
 16 17  2  0
 17 18  1  0
  9 19  1  0
 19 20  1  0
 20 21  1  0
 21 22  1  0
 22 23  1  0
 23  9  1  0
 18 14  1  0
  1 24  1  0
  1 25  1  0
  1 26  1  0
  2 27  1  0
  2 28  1  0
  3 29  1  0
  4 30  1  0
  4 31  1  0
  5 32  1  0
  5 33  1  0
  5 34  1  0
  8 35  1  0
 10 36  1  0
 10 37  1  0
 11 38  1  0
 15 39  1  0
 17 40  1  0
 18 41  1  0
 19 42  1  0
 19 43  1  0
 20 44  1  0
 20 45  1  0
 22 46  1  0
 22 47  1  0
 23 48  1  0
 23 49  1  0
M  END
>  <Energy>  (95) 
520.63773056509979

>  <compound_id>  (95) 
23874

>  <target_id>  (95) 
1

>  <reference_id>  (95) 
27

>  <inspiration_ids>  (95) 
[27, 35]

>  <energy_score>  (95) 
502.9201199522738

>  <distance_score>  (95) 
14.026298954282067

>  <path>  (95) 
/opt/xchem-fragalysis-2/maxwin/BulkDock/SCRATCH/511022/C23874-P27/C23874-P27.minimised.mol

>  <scratch_subdir>  (95) 
/opt/xchem-fragalysis-2/maxwin/BulkDock/SCRATCH/511022/C23874-P27

>  <fragmenstein_runtime>  (95) 
24.69292140007019

>  <fragmenstein_outcome>  (95) 
too moved

>  <fragmenstein_mode>  (95) 
expansion

>  <fragmenstein_error>  (95) 


$$$$
C23874-P35
     RDKit          3D

 49 50  0  0  0  0  0  0  0  0999 V2000
   14.1066   -3.2480   22.9217 C   0  0  0  0  0  0  0  0  0  0  0  0
   14.8186   -4.5142   22.4680 C   0  0  0  0  0  0  0  0  0  0  0  0
   13.9815   -5.4925   21.6271 C   0  0  0  0  0  0  0  0  0  0  0  0
   13.0915   -4.7741   20.5765 C   0  0  0  0  0  0  0  0  0  0  0  0
   13.8623   -4.0593   19.4693 C   0  0  0  0  0  0  0  0  0  0  0  0
   13.2292   -6.7385   22.2814 C   0  0  0  0  0  0  0  0  0  0  0  0
   12.8350   -7.5372   21.4825 O   0  0  0  0  0  0  0  0  0  0  0  0
   13.2177   -6.7686   23.7022 N   0  0  0  0  0  0  0  0  0  0  0  0
   12.8008   -7.8501   24.6658 C   0  0  0  0  0  0  0  0  0  0  0  0
   11.2340   -7.9930   24.6654 C   0  0  0  0  0  0  0  0  0  0  0  0
   10.4216   -9.0419   25.3149 N   0  0  0  0  0  0  0  0  0  0  0  0
    9.1600   -8.9584   26.0364 C   0  0  0  0  0  0  0  0  0  0  0  0
    8.5078   -8.0084   26.3524 O   0  0  0  0  0  0  0  0  0  0  0  0
    8.4981  -10.2622   26.3595 C   0  0  0  0  0  0  0  0  0  0  0  0
    7.2529  -10.4189   26.9947 C   0  0  0  0  0  0  0  0  0  0  0  0
    6.8197  -11.7189   27.0389 N   0  0  0  0  0  0  0  0  0  0  0  0
    7.8036  -12.3856   26.5043 C   0  0  0  0  0  0  0  0  0  0  0  0
    8.8238  -11.5743   26.0841 N   0  0  0  0  0  0  0  0  0  0  0  0
   13.4758   -9.1537   24.2025 C   0  0  0  0  0  0  0  0  0  0  0  0
   15.0001   -8.9919   24.1123 C   0  0  0  0  0  0  0  0  0  0  0  0
   15.4885   -7.9018   24.8988 O   0  0  0  0  0  0  0  0  0  0  0  0
   14.8523   -7.8154   26.1694 C   0  0  0  0  0  0  0  0  0  0  0  0
   13.3570   -7.4879   26.0466 C   0  0  0  0  0  0  0  0  0  0  0  0
   14.7215   -2.7209   23.6589 H   0  0  0  0  0  0  0  0  0  0  0  0
   13.9520   -2.5602   22.0880 H   0  0  0  0  0  0  0  0  0  0  0  0
   13.1448   -3.4784   23.3897 H   0  0  0  0  0  0  0  0  0  0  0  0
   15.6868   -4.1990   21.8735 H   0  0  0  0  0  0  0  0  0  0  0  0
   15.2430   -5.0265   23.3384 H   0  0  0  0  0  0  0  0  0  0  0  0
   14.7502   -6.0304   21.0449 H   0  0  0  0  0  0  0  0  0  0  0  0
   12.4278   -4.0665   21.0799 H   0  0  0  0  0  0  0  0  0  0  0  0
   12.4281   -5.4970   20.1036 H   0  0  0  0  0  0  0  0  0  0  0  0
   14.5558   -4.7436   18.9726 H   0  0  0  0  0  0  0  0  0  0  0  0
   14.4405   -3.2190   19.8630 H   0  0  0  0  0  0  0  0  0  0  0  0
   13.1752   -3.6678   18.7137 H   0  0  0  0  0  0  0  0  0  0  0  0
   13.5604   -5.8811   24.0526 H   0  0  0  0  0  0  0  0  0  0  0  0
   10.8256   -7.0476   25.0399 H   0  0  0  0  0  0  0  0  0  0  0  0
   10.9295   -8.0843   23.6177 H   0  0  0  0  0  0  0  0  0  0  0  0
   10.6434  -10.0109   25.1510 H   0  0  0  0  0  0  0  0  0  0  0  0
    6.6390   -9.6155   27.3872 H   0  0  0  0  0  0  0  0  0  0  0  0
    7.8577  -13.4514   26.4057 H   0  0  0  0  0  0  0  0  0  0  0  0
    9.6689  -11.9040   25.6440 H   0  0  0  0  0  0  0  0  0  0  0  0
   13.2503   -9.9497   24.9250 H   0  0  0  0  0  0  0  0  0  0  0  0
   13.0863   -9.5096   23.2416 H   0  0  0  0  0  0  0  0  0  0  0  0
   15.3018   -8.8026   23.0767 H   0  0  0  0  0  0  0  0  0  0  0  0
   15.5013   -9.9134   24.4287 H   0  0  0  0  0  0  0  0  0  0  0  0
   15.3558   -7.0379   26.7532 H   0  0  0  0  0  0  0  0  0  0  0  0
   14.9972   -8.7614   26.7057 H   0  0  0  0  0  0  0  0  0  0  0  0
   12.8228   -8.0225   26.8418 H   0  0  0  0  0  0  0  0  0  0  0  0
   13.2015   -6.4201   26.2483 H   0  0  0  0  0  0  0  0  0  0  0  0
  1  2  1  0
  2  3  1  0
  3  4  1  0
  4  5  1  0
  3  6  1  0
  6  7  2  0
  6  8  1  0
  8  9  1  0
  9 10  1  0
 10 11  1  0
 11 12  1  0
 12 13  2  0
 12 14  1  0
 14 15  2  0
 15 16  1  0
 16 17  2  0
 17 18  1  0
  9 19  1  0
 19 20  1  0
 20 21  1  0
 21 22  1  0
 22 23  1  0
 23  9  1  0
 18 14  1  0
  1 24  1  0
  1 25  1  0
  1 26  1  0
  2 27  1  0
  2 28  1  0
  3 29  1  0
  4 30  1  0
  4 31  1  0
  5 32  1  0
  5 33  1  0
  5 34  1  0
  8 35  1  0
 10 36  1  0
 10 37  1  0
 11 38  1  0
 15 39  1  0
 17 40  1  0
 18 41  1  0
 19 42  1  0
 19 43  1  0
 20 44  1  0
 20 45  1  0
 22 46  1  0
 22 47  1  0
 23 48  1  0
 23 49  1  0
M  END
>  <Energy>  (96) 
13.024476389154124

>  <compound_id>  (96) 
23874

>  <target_id>  (96) 
1

>  <reference_id>  (96) 
35

>  <inspiration_ids>  (96) 
[27, 35]

>  <energy_score>  (96) 
-4.693134223664856

>  <distance_score>  (96) 
14.018626990491928

>  <path>  (96) 
/opt/xchem-fragalysis-2/maxwin/BulkDock/SCRATCH/511022/C23874-P35/C23874-P35.minimised.mol

>  <scratch_subdir>  (96) 
/opt/xchem-fragalysis-2/maxwin/BulkDock/SCRATCH/511022/C23874-P35

>  <fragmenstein_runtime>  (96) 
33.12565016746521

>  <fragmenstein_outcome>  (96) 
too moved

>  <fragmenstein_mode>  (96) 
expansion

>  <fragmenstein_error>  (96) 


$$$$
C23875-P27
     RDKit          3D

 51 52  0  0  0  0  0  0  0  0999 V2000
    6.3473   -8.6511   19.1399 C   0  0  0  0  0  0  0  0  0  0  0  0
    7.0492   -9.9603   18.7842 C   0  0  0  0  0  0  0  0  0  0  0  0
    7.7718  -10.6329   19.9805 C   0  0  0  0  0  0  0  0  0  0  0  0
    9.1481   -9.9412   20.1645 C   0  0  0  0  0  0  0  0  0  0  0  0
    9.7934  -10.0962   21.5220 C   0  0  0  0  0  0  0  0  0  0  0  0
    8.0345  -12.1399   19.6805 C   0  0  0  0  0  0  0  0  0  0  0  0
    8.2482  -12.4714   18.5501 O   0  0  0  0  0  0  0  0  0  0  0  0
    8.0645  -12.8998   20.9044 N   0  0  0  0  0  0  0  0  0  0  0  0
    8.4598  -14.2861   21.1640 C   0  0  0  0  0  0  0  0  0  0  0  0
    9.9899  -14.2533   21.3917 C   0  0  0  0  0  0  0  0  0  0  0  0
   10.3915  -13.9556   22.8417 C   0  0  0  0  0  0  0  0  0  0  0  0
    9.2722  -13.3746   23.7044 C   0  0  0  0  0  0  0  0  0  0  0  0
    7.9358  -14.1511   23.6318 C   0  0  0  0  0  0  0  0  0  0  0  0
    7.7656  -15.0094   22.3647 C   0  0  0  0  0  0  0  0  0  0  0  0
    6.3035  -15.4532   22.0153 C   0  0  0  0  0  0  0  0  0  0  0  0
    5.5049  -16.4015   22.8355 N   0  0  0  0  0  0  0  0  0  0  0  0
    4.5658  -16.1667   23.9431 C   0  0  0  0  0  0  0  0  0  0  0  0
    4.2852  -15.1428   24.5028 O   0  0  0  0  0  0  0  0  0  0  0  0
    3.5600  -17.6508   24.6254 C   0  0  0  0  0  0  0  0  0  0  0  0
    3.1102  -17.9426   25.8984 C   0  0  0  0  0  0  0  0  0  0  0  0
    3.6924  -19.1897   26.1525 N   0  0  0  0  0  0  0  0  0  0  0  0
    3.7246  -19.8093   25.0348 C   0  0  0  0  0  0  0  0  0  0  0  0
    3.1723  -18.9547   24.1554 N   0  0  0  0  0  0  0  0  0  0  0  0
    6.0808   -8.0975   18.2348 H   0  0  0  0  0  0  0  0  0  0  0  0
    6.9420   -8.0179   19.7897 H   0  0  0  0  0  0  0  0  0  0  0  0
    5.4182   -8.8676   19.6790 H   0  0  0  0  0  0  0  0  0  0  0  0
    6.2851  -10.6446   18.3926 H   0  0  0  0  0  0  0  0  0  0  0  0
    7.7537   -9.8094   17.9614 H   0  0  0  0  0  0  0  0  0  0  0  0
    7.1493  -10.5302   20.8767 H   0  0  0  0  0  0  0  0  0  0  0  0
    9.0550   -8.8751   19.9817 H   0  0  0  0  0  0  0  0  0  0  0  0
    9.8536  -10.3595   19.4411 H   0  0  0  0  0  0  0  0  0  0  0  0
    9.0870   -9.8947   22.3319 H   0  0  0  0  0  0  0  0  0  0  0  0
   10.1795  -11.1098   21.6543 H   0  0  0  0  0  0  0  0  0  0  0  0
   10.6425   -9.4125   21.6231 H   0  0  0  0  0  0  0  0  0  0  0  0
    7.9113  -12.2742   21.6848 H   0  0  0  0  0  0  0  0  0  0  0  0
    8.2750  -14.8376   20.2342 H   0  0  0  0  0  0  0  0  0  0  0  0
   10.4681  -13.5281   20.7210 H   0  0  0  0  0  0  0  0  0  0  0  0
   10.4092  -15.2307   21.1194 H   0  0  0  0  0  0  0  0  0  0  0  0
   10.7242  -14.8937   23.3051 H   0  0  0  0  0  0  0  0  0  0  0  0
   11.2612  -13.2885   22.8570 H   0  0  0  0  0  0  0  0  0  0  0  0
    9.0978  -12.3322   23.4191 H   0  0  0  0  0  0  0  0  0  0  0  0
    9.6015  -13.3330   24.7500 H   0  0  0  0  0  0  0  0  0  0  0  0
    7.8566  -14.8095   24.5063 H   0  0  0  0  0  0  0  0  0  0  0  0
    7.1093  -13.4353   23.7215 H   0  0  0  0  0  0  0  0  0  0  0  0
    8.3149  -15.9472   22.5340 H   0  0  0  0  0  0  0  0  0  0  0  0
    5.6892  -14.5476   21.9416 H   0  0  0  0  0  0  0  0  0  0  0  0
    6.3157  -15.9106   21.0189 H   0  0  0  0  0  0  0  0  0  0  0  0
    5.5626  -17.3946   22.6615 H   0  0  0  0  0  0  0  0  0  0  0  0
    2.9061  -17.3229   26.7682 H   0  0  0  0  0  0  0  0  0  0  0  0
    4.0208  -20.8266   24.9904 H   0  0  0  0  0  0  0  0  0  0  0  0
    3.1646  -19.1139   23.1635 H   0  0  0  0  0  0  0  0  0  0  0  0
  1  2  1  0
  2  3  1  0
  3  4  1  0
  4  5  1  0
  3  6  1  0
  6  7  2  0
  6  8  1  0
  8  9  1  0
  9 10  1  0
 10 11  1  0
 11 12  1  0
 12 13  1  0
 13 14  1  0
 14 15  1  0
 15 16  1  0
 16 17  1  0
 17 18  2  0
 17 19  1  0
 19 20  2  0
 20 21  1  0
 21 22  2  0
 22 23  1  0
 14  9  1  0
 23 19  1  0
  1 24  1  0
  1 25  1  0
  1 26  1  0
  2 27  1  0
  2 28  1  0
  3 29  1  0
  4 30  1  0
  4 31  1  0
  5 32  1  0
  5 33  1  0
  5 34  1  0
  8 35  1  0
  9 36  1  0
 10 37  1  0
 10 38  1  0
 11 39  1  0
 11 40  1  0
 12 41  1  0
 12 42  1  0
 13 43  1  0
 13 44  1  0
 14 45  1  0
 15 46  1  0
 15 47  1  0
 16 48  1  0
 20 49  1  0
 22 50  1  0
 23 51  1  0
M  END
>  <Energy>  (97) 
82.802584555008679

>  <compound_id>  (97) 
23875

>  <target_id>  (97) 
1

>  <reference_id>  (97) 
27

>  <inspiration_ids>  (97) 
[27, 35]

>  <energy_score>  (97) 
91.02848374105201

>  <distance_score>  (97) 
13.448080520598095

>  <path>  (97) 
/opt/xchem-fragalysis-2/maxwin/BulkDock/SCRATCH/511022/C23875-P27/C23875-P27.minimised.mol

>  <scratch_subdir>  (97) 
/opt/xchem-fragalysis-2/maxwin/BulkDock/SCRATCH/511022/C23875-P27

>  <fragmenstein_runtime>  (97) 
48.330557346343994

>  <fragmenstein_outcome>  (97) 
too moved

>  <fragmenstein_mode>  (97) 
expansion

>  <fragmenstein_error>  (97) 


$$$$
C23875-P35
     RDKit          3D

 51 52  0  0  0  0  0  0  0  0999 V2000
   13.2349   -3.3303   17.8548 C   0  0  0  0  0  0  0  0  0  0  0  0
   13.1565   -4.8768   17.7182 C   0  0  0  0  0  0  0  0  0  0  0  0
   12.2935   -5.8024   16.3495 C   0  0  0  0  0  0  0  0  0  0  0  0
   11.7234   -4.3420   15.7961 C   0  0  0  0  0  0  0  0  0  0  0  0
   11.0295   -3.7534   14.5973 C   0  0  0  0  0  0  0  0  0  0  0  0
   12.8456   -7.5620   15.6191 C   0  0  0  0  0  0  0  0  0  0  0  0
   13.9254   -7.4296   15.0172 O   0  0  0  0  0  0  0  0  0  0  0  0
   12.0932   -9.2879   15.8418 N   0  0  0  0  0  0  0  0  0  0  0  0
   12.6300  -10.7268   15.4864 C   0  0  0  0  0  0  0  0  0  0  0  0
   13.4390  -11.1105   14.2436 C   0  0  0  0  0  0  0  0  0  0  0  0
   12.6213  -11.7846   13.1640 C   0  0  0  0  0  0  0  0  0  0  0  0
   11.9922  -13.0784   13.6639 C   0  0  0  0  0  0  0  0  0  0  0  0
   11.7359  -13.1333   15.1668 C   0  0  0  0  0  0  0  0  0  0  0  0
   11.3587  -11.7752   15.7568 C   0  0  0  0  0  0  0  0  0  0  0  0
   10.9461  -11.9997   17.2742 C   0  0  0  0  0  0  0  0  0  0  0  0
    9.8007  -12.8916   17.6942 N   0  0  0  0  0  0  0  0  0  0  0  0
    9.2153  -13.1440   19.0191 C   0  0  0  0  0  0  0  0  0  0  0  0
    9.5529  -12.7633   20.1025 O   0  0  0  0  0  0  0  0  0  0  0  0
    8.0097  -14.0677   19.0946 C   0  0  0  0  0  0  0  0  0  0  0  0
    7.2477  -14.3416   20.2533 C   0  0  0  0  0  0  0  0  0  0  0  0
    6.2321  -15.2533   20.0565 N   0  0  0  0  0  0  0  0  0  0  0  0
    6.3489  -15.5788   18.7952 C   0  0  0  0  0  0  0  0  0  0  0  0
    7.3887  -14.9061   18.1836 N   0  0  0  0  0  0  0  0  0  0  0  0
   12.2916   -2.8117   17.7607 H   0  0  0  0  0  0  0  0  0  0  0  0
   13.9285   -2.9032   17.1199 H   0  0  0  0  0  0  0  0  0  0  0  0
   13.6512   -3.0861   18.8394 H   0  0  0  0  0  0  0  0  0  0  0  0
   14.2382   -4.9802   17.5683 H   0  0  0  0  0  0  0  0  0  0  0  0
   12.8853   -5.2709   18.6989 H   0  0  0  0  0  0  0  0  0  0  0  0
   13.2508   -5.5277   15.8618 H   0  0  0  0  0  0  0  0  0  0  0  0
   12.6337   -3.7343   15.7095 H   0  0  0  0  0  0  0  0  0  0  0  0
   11.1423   -3.9672   16.6309 H   0  0  0  0  0  0  0  0  0  0  0  0
   11.3800   -2.7212   14.4504 H   0  0  0  0  0  0  0  0  0  0  0  0
   11.2024   -4.2430   13.6445 H   0  0  0  0  0  0  0  0  0  0  0  0
    9.9769   -3.6262   14.8304 H   0  0  0  0  0  0  0  0  0  0  0  0
   11.3322   -9.2204   16.3811 H   0  0  0  0  0  0  0  0  0  0  0  0
   13.2839  -11.0176   16.3191 H   0  0  0  0  0  0  0  0  0  0  0  0
   14.1926  -11.8481   14.5613 H   0  0  0  0  0  0  0  0  0  0  0  0
   14.0447  -10.3082   13.8522 H   0  0  0  0  0  0  0  0  0  0  0  0
   11.8315  -11.1283   12.7879 H   0  0  0  0  0  0  0  0  0  0  0  0
   13.2585  -12.0077   12.2997 H   0  0  0  0  0  0  0  0  0  0  0  0
   11.0483  -13.2354   13.1267 H   0  0  0  0  0  0  0  0  0  0  0  0
   12.6327  -13.9268   13.3917 H   0  0  0  0  0  0  0  0  0  0  0  0
   12.6355  -13.5106   15.6709 H   0  0  0  0  0  0  0  0  0  0  0  0
   10.9496  -13.8738   15.3554 H   0  0  0  0  0  0  0  0  0  0  0  0
   10.4824  -11.3791   15.2271 H   0  0  0  0  0  0  0  0  0  0  0  0
   11.8157  -12.3834   17.8221 H   0  0  0  0  0  0  0  0  0  0  0  0
   10.7209  -11.0361   17.7272 H   0  0  0  0  0  0  0  0  0  0  0  0
    9.2087  -13.3031   16.9877 H   0  0  0  0  0  0  0  0  0  0  0  0
    7.4130  -13.9034   21.2319 H   0  0  0  0  0  0  0  0  0  0  0  0
    5.7332  -16.2871   18.2566 H   0  0  0  0  0  0  0  0  0  0  0  0
    7.6651  -15.0420   17.2228 H   0  0  0  0  0  0  0  0  0  0  0  0
  1  2  1  0
  2  3  1  0
  3  4  1  0
  4  5  1  0
  3  6  1  0
  6  7  2  0
  6  8  1  0
  8  9  1  0
  9 10  1  0
 10 11  1  0
 11 12  1  0
 12 13  1  0
 13 14  1  0
 14 15  1  0
 15 16  1  0
 16 17  1  0
 17 18  2  0
 17 19  1  0
 19 20  2  0
 20 21  1  0
 21 22  2  0
 22 23  1  0
 14  9  1  0
 23 19  1  0
  1 24  1  0
  1 25  1  0
  1 26  1  0
  2 27  1  0
  2 28  1  0
  3 29  1  0
  4 30  1  0
  4 31  1  0
  5 32  1  0
  5 33  1  0
  5 34  1  0
  8 35  1  0
  9 36  1  0
 10 37  1  0
 10 38  1  0
 11 39  1  0
 11 40  1  0
 12 41  1  0
 12 42  1  0
 13 43  1  0
 13 44  1  0
 14 45  1  0
 15 46  1  0
 15 47  1  0
 16 48  1  0
 20 49  1  0
 22 50  1  0
 23 51  1  0
M  END
>  <Energy>  (98) 
288.47045565688569

>  <compound_id>  (98) 
23875

>  <target_id>  (98) 
1

>  <reference_id>  (98) 
35

>  <inspiration_ids>  (98) 
[27, 35]

>  <energy_score>  (98) 
296.6963548429319

>  <distance_score>  (98) 
14.106866061415136

>  <path>  (98) 
/opt/xchem-fragalysis-2/maxwin/BulkDock/SCRATCH/511022/C23875-P35/C23875-P35.minimised.mol

>  <scratch_subdir>  (98) 
/opt/xchem-fragalysis-2/maxwin/BulkDock/SCRATCH/511022/C23875-P35

>  <fragmenstein_runtime>  (98) 
37.56556439399719

>  <fragmenstein_outcome>  (98) 
too moved

>  <fragmenstein_mode>  (98) 
expansion

>  <fragmenstein_error>  (98) 


$$$$
C23876-P27
     RDKit          3D

 51 52  0  0  0  0  0  0  0  0999 V2000
   13.9781   -2.6807   17.0680 C   0  0  0  0  0  0  0  0  0  0  0  0
   13.1023   -3.9276   17.2435 C   0  0  0  0  0  0  0  0  0  0  0  0
   11.4901   -3.6595   17.1673 C   0  0  0  0  0  0  0  0  0  0  0  0
   11.2684   -3.1648   15.6959 C   0  0  0  0  0  0  0  0  0  0  0  0
   11.0543   -1.6611   15.5699 C   0  0  0  0  0  0  0  0  0  0  0  0
   10.9933   -5.2264   17.4211 C   0  0  0  0  0  0  0  0  0  0  0  0
   11.4067   -5.9412   16.4627 O   0  0  0  0  0  0  0  0  0  0  0  0
   10.0891   -6.0223   18.9968 N   0  0  0  0  0  0  0  0  0  0  0  0
    9.7587   -8.1011   19.5713 C   0  0  0  0  0  0  0  0  0  0  0  0
    8.2501   -9.3356   18.8200 C   0  0  0  0  0  0  0  0  0  0  0  0
    6.7110  -10.3286   18.8352 N   0  0  0  0  0  0  0  0  0  0  0  0
    6.2951  -11.6696   19.7152 C   0  0  0  0  0  0  0  0  0  0  0  0
    6.8942  -12.2182   20.5976 O   0  0  0  0  0  0  0  0  0  0  0  0
    5.1056  -12.4463   19.3779 C   0  0  0  0  0  0  0  0  0  0  0  0
    3.9578  -12.6049   18.6363 C   0  0  0  0  0  0  0  0  0  0  0  0
    3.3521  -13.8787   18.5077 N   0  0  0  0  0  0  0  0  0  0  0  0
    4.4201  -14.5423   18.5199 C   0  0  0  0  0  0  0  0  0  0  0  0
    5.2691  -13.7773   19.3354 N   0  0  0  0  0  0  0  0  0  0  0  0
   11.0143   -9.7631   19.3222 C   0  0  0  0  0  0  0  0  0  0  0  0
   12.4450  -10.4912   20.2650 C   0  0  0  0  0  0  0  0  0  0  0  0
   13.1652   -9.5902   21.2536 C   0  0  0  0  0  0  0  0  0  0  0  0
   12.1079   -8.7842   21.9338 C   0  0  0  0  0  0  0  0  0  0  0  0
   10.9149   -8.1149   21.0989 C   0  0  0  0  0  0  0  0  0  0  0  0
   13.8999   -2.2695   16.0583 H   0  0  0  0  0  0  0  0  0  0  0  0
   13.7183   -1.8999   17.7874 H   0  0  0  0  0  0  0  0  0  0  0  0
   15.0281   -2.9460   17.2307 H   0  0  0  0  0  0  0  0  0  0  0  0
   13.4158   -4.6666   16.5003 H   0  0  0  0  0  0  0  0  0  0  0  0
   13.3246   -4.3625   18.2279 H   0  0  0  0  0  0  0  0  0  0  0  0
   11.6716   -2.8399   17.8305 H   0  0  0  0  0  0  0  0  0  0  0  0
   10.4177   -3.6636   15.2294 H   0  0  0  0  0  0  0  0  0  0  0  0
   12.1204   -3.4290   15.0626 H   0  0  0  0  0  0  0  0  0  0  0  0
   11.1503   -1.3571   14.5232 H   0  0  0  0  0  0  0  0  0  0  0  0
   11.7874   -1.0912   16.1467 H   0  0  0  0  0  0  0  0  0  0  0  0
   10.0537   -1.3723   15.9007 H   0  0  0  0  0  0  0  0  0  0  0  0
    9.9148   -5.2891   19.6863 H   0  0  0  0  0  0  0  0  0  0  0  0
    7.5025   -8.5792   18.5298 H   0  0  0  0  0  0  0  0  0  0  0  0
    8.6391   -9.8275   17.9199 H   0  0  0  0  0  0  0  0  0  0  0  0
    6.0163  -10.1710   18.1003 H   0  0  0  0  0  0  0  0  0  0  0  0
    3.5152  -11.9006   17.9125 H   0  0  0  0  0  0  0  0  0  0  0  0
    4.5569  -15.5604   18.2713 H   0  0  0  0  0  0  0  0  0  0  0  0
    6.1151  -14.1504   19.5776 H   0  0  0  0  0  0  0  0  0  0  0  0
   10.5794  -10.6969   18.8131 H   0  0  0  0  0  0  0  0  0  0  0  0
   11.4753   -9.8693   18.3668 H   0  0  0  0  0  0  0  0  0  0  0  0
   13.1489  -10.8580   19.5036 H   0  0  0  0  0  0  0  0  0  0  0  0
   12.2405  -11.3627   20.8629 H   0  0  0  0  0  0  0  0  0  0  0  0
   13.7157  -10.1953   21.9850 H   0  0  0  0  0  0  0  0  0  0  0  0
   13.9286   -8.9580   20.7881 H   0  0  0  0  0  0  0  0  0  0  0  0
   11.6853   -9.4005   22.7449 H   0  0  0  0  0  0  0  0  0  0  0  0
   12.6086   -7.9798   22.4954 H   0  0  0  0  0  0  0  0  0  0  0  0
   10.3045   -8.1203   21.9713 H   0  0  0  0  0  0  0  0  0  0  0  0
   11.5404   -7.2521   20.8837 H   0  0  0  0  0  0  0  0  0  0  0  0
  1  2  1  0
  2  3  1  0
  3  4  1  0
  4  5  1  0
  3  6  1  0
  6  7  2  0
  6  8  1  0
  8  9  1  0
  9 10  1  0
 10 11  1  0
 11 12  1  0
 12 13  2  0
 12 14  1  0
 14 15  2  0
 15 16  1  0
 16 17  2  0
 17 18  1  0
  9 19  1  0
 19 20  1  0
 20 21  1  0
 21 22  1  0
 22 23  1  0
 23  9  1  0
 18 14  1  0
  1 24  1  0
  1 25  1  0
  1 26  1  0
  2 27  1  0
  2 28  1  0
  3 29  1  0
  4 30  1  0
  4 31  1  0
  5 32  1  0
  5 33  1  0
  5 34  1  0
  8 35  1  0
 10 36  1  0
 10 37  1  0
 11 38  1  0
 15 39  1  0
 17 40  1  0
 18 41  1  0
 19 42  1  0
 19 43  1  0
 20 44  1  0
 20 45  1  0
 21 46  1  0
 21 47  1  0
 22 48  1  0
 22 49  1  0
 23 50  1  0
 23 51  1  0
M  END
>  <Energy>  (99) 
827.05839841107206

>  <compound_id>  (99) 
23876

>  <target_id>  (99) 
1

>  <reference_id>  (99) 
27

>  <inspiration_ids>  (99) 
[27, 35]

>  <energy_score>  (99) 
808.8884886883094

>  <distance_score>  (99) 
13.03718528559046

>  <path>  (99) 
/opt/xchem-fragalysis-2/maxwin/BulkDock/SCRATCH/511022/C23876-P27/C23876-P27.minimised.mol

>  <scratch_subdir>  (99) 
/opt/xchem-fragalysis-2/maxwin/BulkDock/SCRATCH/511022/C23876-P27

>  <fragmenstein_runtime>  (99) 
48.6110622882843

>  <fragmenstein_outcome>  (99) 
too moved

>  <fragmenstein_mode>  (99) 
expansion

>  <fragmenstein_error>  (99) 


$$$$
C23876-P35
     RDKit          3D

 51 52  0  0  0  0  0  0  0  0999 V2000
   14.9539   -2.4373   21.4598 C   0  0  0  0  0  0  0  0  0  0  0  0
   14.3531   -3.4241   22.4551 C   0  0  0  0  0  0  0  0  0  0  0  0
   13.9517   -4.8280   21.9268 C   0  0  0  0  0  0  0  0  0  0  0  0
   13.0311   -4.7452   20.6930 C   0  0  0  0  0  0  0  0  0  0  0  0
   13.7047   -4.4366   19.3573 C   0  0  0  0  0  0  0  0  0  0  0  0
   13.2893   -5.6829   23.1068 C   0  0  0  0  0  0  0  0  0  0  0  0
   12.9259   -5.1286   24.1043 O   0  0  0  0  0  0  0  0  0  0  0  0
   13.3147   -7.0933   22.7656 N   0  0  0  0  0  0  0  0  0  0  0  0
   12.9856   -8.3274   23.5946 C   0  0  0  0  0  0  0  0  0  0  0  0
   11.4533   -8.3092   24.0096 C   0  0  0  0  0  0  0  0  0  0  0  0
   10.6700   -9.2806   24.8132 N   0  0  0  0  0  0  0  0  0  0  0  0
   10.5104  -10.7035   24.6821 C   0  0  0  0  0  0  0  0  0  0  0  0
   11.0325  -11.4791   23.9405 O   0  0  0  0  0  0  0  0  0  0  0  0
    9.4367  -11.2397   25.5708 C   0  0  0  0  0  0  0  0  0  0  0  0
    9.4869  -12.1892   26.5853 C   0  0  0  0  0  0  0  0  0  0  0  0
    8.2390  -12.5873   27.0120 N   0  0  0  0  0  0  0  0  0  0  0  0
    7.4011  -11.9120   26.2749 C   0  0  0  0  0  0  0  0  0  0  0  0
    8.0593  -11.0847   25.4050 N   0  0  0  0  0  0  0  0  0  0  0  0
   13.3487   -9.5394   22.7156 C   0  0  0  0  0  0  0  0  0  0  0  0
   14.8048   -9.5247   22.2117 C   0  0  0  0  0  0  0  0  0  0  0  0
   15.7685   -8.7529   23.1133 C   0  0  0  0  0  0  0  0  0  0  0  0
   15.3396   -8.7891   24.5747 C   0  0  0  0  0  0  0  0  0  0  0  0
   13.8950   -8.3273   24.8381 C   0  0  0  0  0  0  0  0  0  0  0  0
   15.7325   -2.9083   20.8530 H   0  0  0  0  0  0  0  0  0  0  0  0
   14.1887   -2.0047   20.8121 H   0  0  0  0  0  0  0  0  0  0  0  0
   15.4129   -1.6032   22.0018 H   0  0  0  0  0  0  0  0  0  0  0  0
   13.4916   -2.9480   22.9367 H   0  0  0  0  0  0  0  0  0  0  0  0
   15.0860   -3.5746   23.2594 H   0  0  0  0  0  0  0  0  0  0  0  0
   14.8768   -5.3516   21.6494 H   0  0  0  0  0  0  0  0  0  0  0  0
   12.5137   -5.6988   20.5739 H   0  0  0  0  0  0  0  0  0  0  0  0
   12.2608   -4.0005   20.8958 H   0  0  0  0  0  0  0  0  0  0  0  0
   14.6194   -5.0239   19.2370 H   0  0  0  0  0  0  0  0  0  0  0  0
   13.9552   -3.3823   19.2434 H   0  0  0  0  0  0  0  0  0  0  0  0
   13.0313   -4.6767   18.5302 H   0  0  0  0  0  0  0  0  0  0  0  0
   13.7656   -7.2074   21.8651 H   0  0  0  0  0  0  0  0  0  0  0  0
   11.2760   -7.3580   24.5229 H   0  0  0  0  0  0  0  0  0  0  0  0
   10.8996   -8.2823   23.0679 H   0  0  0  0  0  0  0  0  0  0  0  0
   10.1263   -8.9585   25.6080 H   0  0  0  0  0  0  0  0  0  0  0  0
   10.3830  -12.6178   27.0165 H   0  0  0  0  0  0  0  0  0  0  0  0
    6.3288  -11.9850   26.3289 H   0  0  0  0  0  0  0  0  0  0  0  0
    7.6158  -10.4932   24.7153 H   0  0  0  0  0  0  0  0  0  0  0  0
   13.2044  -10.4585   23.2939 H   0  0  0  0  0  0  0  0  0  0  0  0
   12.6850   -9.6063   21.8492 H   0  0  0  0  0  0  0  0  0  0  0  0
   15.1450  -10.5634   22.1156 H   0  0  0  0  0  0  0  0  0  0  0  0
   14.8486   -9.1036   21.1998 H   0  0  0  0  0  0  0  0  0  0  0  0
   16.7766   -9.1717   23.0104 H   0  0  0  0  0  0  0  0  0  0  0  0
   15.8465   -7.7116   22.7808 H   0  0  0  0  0  0  0  0  0  0  0  0
   16.0295   -8.1895   25.1801 H   0  0  0  0  0  0  0  0  0  0  0  0
   15.4419   -9.8208   24.9365 H   0  0  0  0  0  0  0  0  0  0  0  0
   13.9175   -7.3314   25.2962 H   0  0  0  0  0  0  0  0  0  0  0  0
   13.4738   -8.9914   25.6043 H   0  0  0  0  0  0  0  0  0  0  0  0
  1  2  1  0
  2  3  1  0
  3  4  1  0
  4  5  1  0
  3  6  1  0
  6  7  2  0
  6  8  1  0
  8  9  1  0
  9 10  1  0
 10 11  1  0
 11 12  1  0
 12 13  2  0
 12 14  1  0
 14 15  2  0
 15 16  1  0
 16 17  2  0
 17 18  1  0
  9 19  1  0
 19 20  1  0
 20 21  1  0
 21 22  1  0
 22 23  1  0
 23  9  1  0
 18 14  1  0
  1 24  1  0
  1 25  1  0
  1 26  1  0
  2 27  1  0
  2 28  1  0
  3 29  1  0
  4 30  1  0
  4 31  1  0
  5 32  1  0
  5 33  1  0
  5 34  1  0
  8 35  1  0
 10 36  1  0
 10 37  1  0
 11 38  1  0
 15 39  1  0
 17 40  1  0
 18 41  1  0
 19 42  1  0
 19 43  1  0
 20 44  1  0
 20 45  1  0
 21 46  1  0
 21 47  1  0
 22 48  1  0
 22 49  1  0
 23 50  1  0
 23 51  1  0
M  END
>  <Energy>  (100) 
10.304963010417353

>  <compound_id>  (100) 
23876

>  <target_id>  (100) 
1

>  <reference_id>  (100) 
35

>  <inspiration_ids>  (100) 
[27, 35]

>  <energy_score>  (100) 
-7.864946712334586

>  <distance_score>  (100) 
13.93904903146662

>  <path>  (100) 
/opt/xchem-fragalysis-2/maxwin/BulkDock/SCRATCH/511022/C23876-P35/C23876-P35.minimised.mol

>  <scratch_subdir>  (100) 
/opt/xchem-fragalysis-2/maxwin/BulkDock/SCRATCH/511022/C23876-P35

>  <fragmenstein_runtime>  (100) 
38.18074035644531

>  <fragmenstein_outcome>  (100) 
too moved

>  <fragmenstein_mode>  (100) 
expansion

>  <fragmenstein_error>  (100) 


$$$$
C23877-P27
     RDKit          3D

 54 55  0  0  0  0  0  0  0  0999 V2000
    7.9848   -8.6334   26.0535 C   0  0  0  0  0  0  0  0  0  0  0  0
    7.3959  -10.0292   26.3779 C   0  0  0  0  0  0  0  0  0  0  0  0
    7.7736  -11.1243   25.3810 C   0  0  0  0  0  0  0  0  0  0  0  0
    7.6012  -10.6314   23.8838 C   0  0  0  0  0  0  0  0  0  0  0  0
    8.8906  -10.1794   23.1853 C   0  0  0  0  0  0  0  0  0  0  0  0
    7.4825  -12.7307   25.4846 C   0  0  0  0  0  0  0  0  0  0  0  0
    8.5073  -13.3488   25.2976 O   0  0  0  0  0  0  0  0  0  0  0  0
    6.0345  -13.2350   25.6751 N   0  0  0  0  0  0  0  0  0  0  0  0
    5.3089  -14.9572   25.5596 C   0  0  0  0  0  0  0  0  0  0  0  0
    6.7268  -16.3549   26.1420 C   0  0  0  0  0  0  0  0  0  0  0  0
    6.1900  -18.3205   27.3472 C   0  0  0  0  0  0  0  0  0  0  0  0
    4.4501  -18.2499   28.6034 N   0  0  0  0  0  0  0  0  0  0  0  0
    4.3176  -17.7600   30.3539 C   0  0  0  0  0  0  0  0  0  0  0  0
    5.1436  -17.2748   31.0993 O   0  0  0  0  0  0  0  0  0  0  0  0
    2.7455  -18.0339   31.2743 C   0  0  0  0  0  0  0  0  0  0  0  0
    2.9869  -17.2587   32.6467 C   0  0  0  0  0  0  0  0  0  0  0  0
    2.1647  -19.4138   31.9178 C   0  0  0  0  0  0  0  0  0  0  0  0
    0.8257  -20.0273   31.4698 C   0  0  0  0  0  0  0  0  0  0  0  0
    0.4568  -21.3392   31.1987 C   0  0  0  0  0  0  0  0  0  0  0  0
   -0.8894  -21.4531   30.9336 N   0  0  0  0  0  0  0  0  0  0  0  0
   -1.3599  -20.2363   31.0695 C   0  0  0  0  0  0  0  0  0  0  0  0
   -0.3687  -19.3445   31.3904 N   0  0  0  0  0  0  0  0  0  0  0  0
    3.8855  -16.7654   27.5078 C   0  0  0  0  0  0  0  0  0  0  0  0
    4.1485  -15.0841   26.8856 C   0  0  0  0  0  0  0  0  0  0  0  0
    9.0728   -8.6832   25.9509 H   0  0  0  0  0  0  0  0  0  0  0  0
    7.5536   -8.2046   25.1456 H   0  0  0  0  0  0  0  0  0  0  0  0
    7.7586   -7.9470   26.8762 H   0  0  0  0  0  0  0  0  0  0  0  0
    7.7525  -10.3323   27.3707 H   0  0  0  0  0  0  0  0  0  0  0  0
    6.3166   -9.9497   26.4778 H   0  0  0  0  0  0  0  0  0  0  0  0
    8.8704  -11.1384   25.5202 H   0  0  0  0  0  0  0  0  0  0  0  0
    6.8469   -9.8400   23.8197 H   0  0  0  0  0  0  0  0  0  0  0  0
    7.2113  -11.4531   23.2903 H   0  0  0  0  0  0  0  0  0  0  0  0
    9.6388  -10.9783   23.2146 H   0  0  0  0  0  0  0  0  0  0  0  0
    9.3199   -9.2948   23.6602 H   0  0  0  0  0  0  0  0  0  0  0  0
    8.6876   -9.9566   22.1338 H   0  0  0  0  0  0  0  0  0  0  0  0
    5.4322  -12.4504   25.8932 H   0  0  0  0  0  0  0  0  0  0  0  0
    4.8132  -15.1322   24.5934 H   0  0  0  0  0  0  0  0  0  0  0  0
    6.4770  -16.3351   25.0077 H   0  0  0  0  0  0  0  0  0  0  0  0
    7.5724  -15.8323   26.4546 H   0  0  0  0  0  0  0  0  0  0  0  0
    5.4884  -19.3893   27.0847 H   0  0  0  0  0  0  0  0  0  0  0  0
    7.2461  -18.7720   27.7124 H   0  0  0  0  0  0  0  0  0  0  0  0
    1.9438  -17.4427   30.8132 H   0  0  0  0  0  0  0  0  0  0  0  0
    2.0338  -17.1089   33.1691 H   0  0  0  0  0  0  0  0  0  0  0  0
    3.6529  -17.8421   33.2956 H   0  0  0  0  0  0  0  0  0  0  0  0
    3.4437  -16.2738   32.5785 H   0  0  0  0  0  0  0  0  0  0  0  0
    2.9345  -20.1843   31.9967 H   0  0  0  0  0  0  0  0  0  0  0  0
    1.9452  -19.2385   32.9839 H   0  0  0  0  0  0  0  0  0  0  0  0
    1.1005  -22.2100   31.1918 H   0  0  0  0  0  0  0  0  0  0  0  0
   -2.3917  -19.9345   30.9503 H   0  0  0  0  0  0  0  0  0  0  0  0
   -0.4968  -18.3552   31.5484 H   0  0  0  0  0  0  0  0  0  0  0  0
    3.2381  -17.2709   26.7415 H   0  0  0  0  0  0  0  0  0  0  0  0
    2.9950  -16.5456   28.0700 H   0  0  0  0  0  0  0  0  0  0  0  0
    3.3736  -14.3594   26.6669 H   0  0  0  0  0  0  0  0  0  0  0  0
    4.4169  -14.4849   27.7363 H   0  0  0  0  0  0  0  0  0  0  0  0
  1  2  1  0
  2  3  1  0
  3  4  1  0
  4  5  1  0
  3  6  1  0
  6  7  2  0
  6  8  1  0
  8  9  1  0
  9 10  1  0
 10 11  1  0
 11 12  1  0
 12 13  1  0
 13 14  2  0
 13 15  1  0
 15 16  1  0
 15 17  1  0
 17 18  1  0
 18 19  2  0
 19 20  1  0
 20 21  2  0
 21 22  1  0
 12 23  1  0
 23 24  1  0
 24  9  1  0
 22 18  1  0
  1 25  1  0
  1 26  1  0
  1 27  1  0
  2 28  1  0
  2 29  1  0
  3 30  1  0
  4 31  1  0
  4 32  1  0
  5 33  1  0
  5 34  1  0
  5 35  1  0
  8 36  1  0
  9 37  1  0
 10 38  1  0
 10 39  1  0
 11 40  1  0
 11 41  1  0
 15 42  1  0
 16 43  1  0
 16 44  1  0
 16 45  1  0
 17 46  1  0
 17 47  1  0
 19 48  1  0
 21 49  1  0
 22 50  1  0
 23 51  1  0
 23 52  1  0
 24 53  1  0
 24 54  1  0
M  END
>  <Energy>  (101) 
854.85964993924892

>  <compound_id>  (101) 
23877

>  <target_id>  (101) 
1

>  <reference_id>  (101) 
27

>  <inspiration_ids>  (101) 
[27, 35]

>  <energy_score>  (101) 
835.1092245500051

>  <distance_score>  (101) 
14.718279573163615

>  <path>  (101) 
/opt/xchem-fragalysis-2/maxwin/BulkDock/SCRATCH/511022/C23877-P27/C23877-P27.minimised.mol

>  <scratch_subdir>  (101) 
/opt/xchem-fragalysis-2/maxwin/BulkDock/SCRATCH/511022/C23877-P27

>  <fragmenstein_runtime>  (101) 
45.076443910598755

>  <fragmenstein_outcome>  (101) 
too moved

>  <fragmenstein_mode>  (101) 
expansion

>  <fragmenstein_error>  (101) 


$$$$
C23877-P35
     RDKit          3D

 54 55  0  0  0  0  0  0  0  0999 V2000
   12.8899   -3.9898   17.0314 C   0  0  0  0  0  0  0  0  0  0  0  0
   13.0532   -5.5523   16.7630 C   0  0  0  0  0  0  0  0  0  0  0  0
   12.2784   -7.2453   16.0776 C   0  0  0  0  0  0  0  0  0  0  0  0
   11.3570   -5.9634   15.8551 C   0  0  0  0  0  0  0  0  0  0  0  0
   11.2582   -4.3430   15.0617 C   0  0  0  0  0  0  0  0  0  0  0  0
   11.7077   -9.3183   15.8984 C   0  0  0  0  0  0  0  0  0  0  0  0
   10.5146   -9.4267   15.6691 O   0  0  0  0  0  0  0  0  0  0  0  0
   12.6987  -10.4724   16.0259 N   0  0  0  0  0  0  0  0  0  0  0  0
   12.5146  -11.9165   16.0152 C   0  0  0  0  0  0  0  0  0  0  0  0
   11.7469  -12.4275   14.8187 C   0  0  0  0  0  0  0  0  0  0  0  0
   10.3309  -12.8622   15.1984 C   0  0  0  0  0  0  0  0  0  0  0  0
   10.2360  -14.0724   16.1010 N   0  0  0  0  0  0  0  0  0  0  0  0
    9.1041  -14.8875   16.4647 C   0  0  0  0  0  0  0  0  0  0  0  0
    7.9324  -14.7554   16.2122 O   0  0  0  0  0  0  0  0  0  0  0  0
    9.5171  -16.2185   17.2282 C   0  0  0  0  0  0  0  0  0  0  0  0
   10.6258  -16.0910   18.2630 C   0  0  0  0  0  0  0  0  0  0  0  0
    8.2585  -16.9104   17.8431 C   0  0  0  0  0  0  0  0  0  0  0  0
    8.3434  -18.3884   18.1663 C   0  0  0  0  0  0  0  0  0  0  0  0
    8.2417  -19.0890   19.3498 C   0  0  0  0  0  0  0  0  0  0  0  0
    8.2178  -20.4484   19.1351 N   0  0  0  0  0  0  0  0  0  0  0  0
    8.3365  -20.5970   17.8438 C   0  0  0  0  0  0  0  0  0  0  0  0
    8.4123  -19.3845   17.2173 N   0  0  0  0  0  0  0  0  0  0  0  0
   10.4940  -13.0090   17.1771 C   0  0  0  0  0  0  0  0  0  0  0  0
   11.9390  -12.4830   17.3079 C   0  0  0  0  0  0  0  0  0  0  0  0
   11.8923   -3.6707   17.2974 H   0  0  0  0  0  0  0  0  0  0  0  0
   13.5184   -3.7204   17.8961 H   0  0  0  0  0  0  0  0  0  0  0  0
   13.3190   -3.3655   16.2415 H   0  0  0  0  0  0  0  0  0  0  0  0
   13.9430   -5.3908   16.1372 H   0  0  0  0  0  0  0  0  0  0  0  0
   13.0769   -5.6272   17.8628 H   0  0  0  0  0  0  0  0  0  0  0  0
   13.0837   -7.3502   15.3977 H   0  0  0  0  0  0  0  0  0  0  0  0
   10.7276   -6.5149   15.2140 H   0  0  0  0  0  0  0  0  0  0  0  0
   11.0465   -5.5520   16.8010 H   0  0  0  0  0  0  0  0  0  0  0  0
   10.6387   -3.6564   15.6317 H   0  0  0  0  0  0  0  0  0  0  0  0
   10.7892   -4.4555   14.0946 H   0  0  0  0  0  0  0  0  0  0  0  0
   12.2084   -3.8647   14.8264 H   0  0  0  0  0  0  0  0  0  0  0  0
   13.6113  -10.0905   16.1285 H   0  0  0  0  0  0  0  0  0  0  0  0
   13.5463  -12.2826   15.9280 H   0  0  0  0  0  0  0  0  0  0  0  0
   12.2695  -13.3071   14.4189 H   0  0  0  0  0  0  0  0  0  0  0  0
   11.7139  -11.6961   14.0046 H   0  0  0  0  0  0  0  0  0  0  0  0
    9.9152  -13.2708   14.2627 H   0  0  0  0  0  0  0  0  0  0  0  0
    9.6131  -12.0440   15.3753 H   0  0  0  0  0  0  0  0  0  0  0  0
    9.8944  -16.8725   16.4289 H   0  0  0  0  0  0  0  0  0  0  0  0
   10.8976  -17.0715   18.6671 H   0  0  0  0  0  0  0  0  0  0  0  0
   10.3164  -15.4583   19.0987 H   0  0  0  0  0  0  0  0  0  0  0  0
   11.5342  -15.6640   17.8281 H   0  0  0  0  0  0  0  0  0  0  0  0
    7.4131  -16.8098   17.1520 H   0  0  0  0  0  0  0  0  0  0  0  0
    7.9618  -16.3667   18.7496 H   0  0  0  0  0  0  0  0  0  0  0  0
    8.1517  -18.6864   20.3418 H   0  0  0  0  0  0  0  0  0  0  0  0
    8.3768  -21.5368   17.3090 H   0  0  0  0  0  0  0  0  0  0  0  0
    8.5171  -19.2492   16.2211 H   0  0  0  0  0  0  0  0  0  0  0  0
    9.7272  -12.2163   17.2399 H   0  0  0  0  0  0  0  0  0  0  0  0
   10.3039  -13.5167   18.1311 H   0  0  0  0  0  0  0  0  0  0  0  0
   12.5646  -13.3350   17.6068 H   0  0  0  0  0  0  0  0  0  0  0  0
   11.9930  -11.7632   18.1320 H   0  0  0  0  0  0  0  0  0  0  0  0
  1  2  1  0
  2  3  1  0
  3  4  1  0
  4  5  1  0
  3  6  1  0
  6  7  2  0
  6  8  1  0
  8  9  1  0
  9 10  1  0
 10 11  1  0
 11 12  1  0
 12 13  1  0
 13 14  2  0
 13 15  1  0
 15 16  1  0
 15 17  1  0
 17 18  1  0
 18 19  2  0
 19 20  1  0
 20 21  2  0
 21 22  1  0
 12 23  1  0
 23 24  1  0
 24  9  1  0
 22 18  1  0
  1 25  1  0
  1 26  1  0
  1 27  1  0
  2 28  1  0
  2 29  1  0
  3 30  1  0
  4 31  1  0
  4 32  1  0
  5 33  1  0
  5 34  1  0
  5 35  1  0
  8 36  1  0
  9 37  1  0
 10 38  1  0
 10 39  1  0
 11 40  1  0
 11 41  1  0
 15 42  1  0
 16 43  1  0
 16 44  1  0
 16 45  1  0
 17 46  1  0
 17 47  1  0
 19 48  1  0
 21 49  1  0
 22 50  1  0
 23 51  1  0
 23 52  1  0
 24 53  1  0
 24 54  1  0
M  END
>  <Energy>  (102) 
431.31092542869624

>  <compound_id>  (102) 
23877

>  <target_id>  (102) 
1

>  <reference_id>  (102) 
35

>  <inspiration_ids>  (102) 
[27, 35]

>  <energy_score>  (102) 
411.56050003945916

>  <distance_score>  (102) 
14.243782794452773

>  <path>  (102) 
/opt/xchem-fragalysis-2/maxwin/BulkDock/SCRATCH/511022/C23877-P35/C23877-P35.minimised.mol

>  <scratch_subdir>  (102) 
/opt/xchem-fragalysis-2/maxwin/BulkDock/SCRATCH/511022/C23877-P35

>  <fragmenstein_runtime>  (102) 
30.249194860458374

>  <fragmenstein_outcome>  (102) 
too moved

>  <fragmenstein_mode>  (102) 
expansion

>  <fragmenstein_error>  (102) 


$$$$
C73152-P27
     RDKit          3D

 54 55  0  0  0  0  0  0  0  0999 V2000
   13.5133   -7.4897   22.2110 C   0  0  0  0  0  0  0  0  0  0  0  0
   12.6529   -8.0076   23.3678 C   0  0  0  0  0  0  0  0  0  0  0  0
   11.8407   -9.3385   23.1405 C   0  0  0  0  0  0  0  0  0  0  0  0
   11.2640   -9.3864   21.7181 C   0  0  0  0  0  0  0  0  0  0  0  0
   10.0211  -10.2115   21.4593 C   0  0  0  0  0  0  0  0  0  0  0  0
   10.7650   -9.5400   24.2571 C   0  0  0  0  0  0  0  0  0  0  0  0
   10.2280   -8.5614   24.6970 O   0  0  0  0  0  0  0  0  0  0  0  0
   10.6312  -10.9431   24.6254 N   0  0  0  0  0  0  0  0  0  0  0  0
    9.8759  -11.5855   25.7094 C   0  0  0  0  0  0  0  0  0  0  0  0
    8.7430  -10.7439   26.2155 C   0  0  0  0  0  0  0  0  0  0  0  0
    8.0301  -11.5908   27.2674 C   0  0  0  0  0  0  0  0  0  0  0  0
    6.9743  -12.5756   26.8619 N   0  0  0  0  0  0  0  0  0  0  0  0
    6.1035  -12.6085   25.7356 C   0  0  0  0  0  0  0  0  0  0  0  0
    6.0852  -11.8772   24.7820 O   0  0  0  0  0  0  0  0  0  0  0  0
    4.6198  -13.8539   25.7055 C   0  0  0  0  0  0  0  0  0  0  0  0
    4.0346  -13.9181   27.4451 C   0  0  0  0  0  0  0  0  0  0  0  0
    3.3261  -13.4366   24.3734 C   0  0  0  0  0  0  0  0  0  0  0  0
    4.4116  -15.2495   25.4298 C   0  0  0  0  0  0  0  0  0  0  0  0
    4.4294  -16.2146   24.3025 C   0  0  0  0  0  0  0  0  0  0  0  0
    3.6037  -17.6669   25.0103 N   0  0  0  0  0  0  0  0  0  0  0  0
    3.1436  -17.3541   26.3162 C   0  0  0  0  0  0  0  0  0  0  0  0
    3.7714  -16.2223   26.7404 N   0  0  0  0  0  0  0  0  0  0  0  0
    8.2594  -13.4738   26.5974 C   0  0  0  0  0  0  0  0  0  0  0  0
    9.2611  -12.9612   25.4307 C   0  0  0  0  0  0  0  0  0  0  0  0
   14.1587   -8.2836   21.8232 H   0  0  0  0  0  0  0  0  0  0  0  0
   14.1531   -6.6734   22.5615 H   0  0  0  0  0  0  0  0  0  0  0  0
   12.9064   -7.0981   21.3942 H   0  0  0  0  0  0  0  0  0  0  0  0
   11.9873   -7.2004   23.6839 H   0  0  0  0  0  0  0  0  0  0  0  0
   13.3113   -8.1802   24.2300 H   0  0  0  0  0  0  0  0  0  0  0  0
   12.5701  -10.1549   23.2338 H   0  0  0  0  0  0  0  0  0  0  0  0
   11.0685   -8.3805   21.3497 H   0  0  0  0  0  0  0  0  0  0  0  0
   12.0561   -9.8359   21.1149 H   0  0  0  0  0  0  0  0  0  0  0  0
    9.7402  -10.1535   20.4028 H   0  0  0  0  0  0  0  0  0  0  0  0
    9.1695   -9.8705   22.0528 H   0  0  0  0  0  0  0  0  0  0  0  0
   10.1985  -11.2652   21.6983 H   0  0  0  0  0  0  0  0  0  0  0  0
   11.3012  -11.4895   24.0971 H   0  0  0  0  0  0  0  0  0  0  0  0
   10.6113  -11.7066   26.5159 H   0  0  0  0  0  0  0  0  0  0  0  0
    8.0660  -10.4327   25.4134 H   0  0  0  0  0  0  0  0  0  0  0  0
    9.1273   -9.8318   26.6871 H   0  0  0  0  0  0  0  0  0  0  0  0
    7.3830  -10.8433   27.7569 H   0  0  0  0  0  0  0  0  0  0  0  0
    8.6572  -11.8864   28.1261 H   0  0  0  0  0  0  0  0  0  0  0  0
    4.5321  -13.1546   28.0605 H   0  0  0  0  0  0  0  0  0  0  0  0
    4.1056  -14.7967   28.0801 H   0  0  0  0  0  0  0  0  0  0  0  0
    2.9584  -13.8366   27.3934 H   0  0  0  0  0  0  0  0  0  0  0  0
    2.3326  -13.1457   24.7445 H   0  0  0  0  0  0  0  0  0  0  0  0
    3.4724  -12.6217   23.6742 H   0  0  0  0  0  0  0  0  0  0  0  0
    3.2262  -14.2406   23.6419 H   0  0  0  0  0  0  0  0  0  0  0  0
    4.0337  -16.1076   23.3396 H   0  0  0  0  0  0  0  0  0  0  0  0
    3.2927  -18.3434   24.3229 H   0  0  0  0  0  0  0  0  0  0  0  0
    2.4153  -17.8738   26.8710 H   0  0  0  0  0  0  0  0  0  0  0  0
    7.9253  -14.4480   26.2463 H   0  0  0  0  0  0  0  0  0  0  0  0
    8.8163  -13.7051   27.5194 H   0  0  0  0  0  0  0  0  0  0  0  0
   10.0706  -13.6880   25.3334 H   0  0  0  0  0  0  0  0  0  0  0  0
    8.7259  -12.9323   24.4779 H   0  0  0  0  0  0  0  0  0  0  0  0
  1  2  1  0
  2  3  1  0
  3  4  1  0
  4  5  1  0
  3  6  1  0
  6  7  2  0
  6  8  1  0
  8  9  1  0
  9 10  1  0
 10 11  1  0
 11 12  1  0
 12 13  1  0
 13 14  2  0
 13 15  1  0
 15 16  1  0
 15 17  1  0
 15 18  1  0
 18 19  2  0
 19 20  1  0
 20 21  1  0
 21 22  2  0
 12 23  1  0
 23 24  1  0
 24  9  1  0
 22 18  1  0
  1 25  1  0
  1 26  1  0
  1 27  1  0
  2 28  1  0
  2 29  1  0
  3 30  1  0
  4 31  1  0
  4 32  1  0
  5 33  1  0
  5 34  1  0
  5 35  1  0
  8 36  1  0
  9 37  1  0
 10 38  1  0
 10 39  1  0
 11 40  1  0
 11 41  1  0
 16 42  1  0
 16 43  1  0
 16 44  1  0
 17 45  1  0
 17 46  1  0
 17 47  1  0
 19 48  1  0
 20 49  1  0
 21 50  1  0
 23 51  1  0
 23 52  1  0
 24 53  1  0
 24 54  1  0
M  END
>  <Energy>  (103) 
341.16637914171611

>  <compound_id>  (103) 
73152

>  <target_id>  (103) 
1

>  <reference_id>  (103) 
27

>  <inspiration_ids>  (103) 
[27, 35]

>  <energy_score>  (103) 
267.8403502307385

>  <distance_score>  (103) 
13.620908707943538

>  <path>  (103) 
/opt/xchem-fragalysis-2/maxwin/BulkDock/SCRATCH/511022/C73152-P27/C73152-P27.minimised.mol

>  <scratch_subdir>  (103) 
/opt/xchem-fragalysis-2/maxwin/BulkDock/SCRATCH/511022/C73152-P27

>  <fragmenstein_runtime>  (103) 
40.25907564163208

>  <fragmenstein_outcome>  (103) 
too moved

>  <fragmenstein_mode>  (103) 
expansion

>  <fragmenstein_error>  (103) 


$$$$
C73152-P35
     RDKit          3D

 54 55  0  0  0  0  0  0  0  0999 V2000
   12.9628   -4.8510   23.8755 C   0  0  0  0  0  0  0  0  0  0  0  0
   12.2075   -5.7098   24.8953 C   0  0  0  0  0  0  0  0  0  0  0  0
   12.2980   -7.2700   24.8492 C   0  0  0  0  0  0  0  0  0  0  0  0
   13.1979   -7.8716   23.7314 C   0  0  0  0  0  0  0  0  0  0  0  0
   12.8772   -7.7125   22.2534 C   0  0  0  0  0  0  0  0  0  0  0  0
   10.8850   -8.0035   25.0229 C   0  0  0  0  0  0  0  0  0  0  0  0
   10.3274   -8.3948   24.0346 O   0  0  0  0  0  0  0  0  0  0  0  0
   10.4542   -7.9980   26.4188 N   0  0  0  0  0  0  0  0  0  0  0  0
    9.1620   -8.3801   27.0394 C   0  0  0  0  0  0  0  0  0  0  0  0
    8.3762   -9.5584   26.4673 C   0  0  0  0  0  0  0  0  0  0  0  0
    8.2547  -10.7057   27.5279 C   0  0  0  0  0  0  0  0  0  0  0  0
    7.4580  -10.8221   28.8320 N   0  0  0  0  0  0  0  0  0  0  0  0
    6.0128  -10.9463   29.0620 C   0  0  0  0  0  0  0  0  0  0  0  0
    5.0922  -10.8949   28.2852 O   0  0  0  0  0  0  0  0  0  0  0  0
    5.5919  -11.3228   30.5941 C   0  0  0  0  0  0  0  0  0  0  0  0
    6.8206  -11.6508   31.4654 C   0  0  0  0  0  0  0  0  0  0  0  0
    4.9109  -10.0594   31.1601 C   0  0  0  0  0  0  0  0  0  0  0  0
    4.5454  -12.5469   30.7357 C   0  0  0  0  0  0  0  0  0  0  0  0
    3.9457  -13.3945   29.8206 C   0  0  0  0  0  0  0  0  0  0  0  0
    3.3318  -14.3964   30.5380 N   0  0  0  0  0  0  0  0  0  0  0  0
    3.3886  -14.0445   31.8483 C   0  0  0  0  0  0  0  0  0  0  0  0
    4.1100  -12.9538   32.0072 N   0  0  0  0  0  0  0  0  0  0  0  0
    7.8922   -9.3449   28.9738 C   0  0  0  0  0  0  0  0  0  0  0  0
    9.2567   -8.6865   28.5352 C   0  0  0  0  0  0  0  0  0  0  0  0
   14.0153   -5.1409   23.8121 H   0  0  0  0  0  0  0  0  0  0  0  0
   12.9310   -3.8023   24.1916 H   0  0  0  0  0  0  0  0  0  0  0  0
   12.5167   -4.8901   22.8837 H   0  0  0  0  0  0  0  0  0  0  0  0
   11.1618   -5.3965   24.9273 H   0  0  0  0  0  0  0  0  0  0  0  0
   12.5952   -5.4141   25.8812 H   0  0  0  0  0  0  0  0  0  0  0  0
   12.8401   -7.5481   25.7680 H   0  0  0  0  0  0  0  0  0  0  0  0
   14.2221   -7.5092   23.8903 H   0  0  0  0  0  0  0  0  0  0  0  0
   13.2456   -8.9534   23.9203 H   0  0  0  0  0  0  0  0  0  0  0  0
   11.8822   -8.0927   22.0153 H   0  0  0  0  0  0  0  0  0  0  0  0
   13.5904   -8.3167   21.6807 H   0  0  0  0  0  0  0  0  0  0  0  0
   12.9979   -6.6910   21.8978 H   0  0  0  0  0  0  0  0  0  0  0  0
   11.1483   -7.5128   26.9781 H   0  0  0  0  0  0  0  0  0  0  0  0
    8.5432   -7.4832   26.9045 H   0  0  0  0  0  0  0  0  0  0  0  0
    8.8574   -9.9573   25.5685 H   0  0  0  0  0  0  0  0  0  0  0  0
    7.3677   -9.2368   26.1790 H   0  0  0  0  0  0  0  0  0  0  0  0
    7.7981  -11.5238   26.9483 H   0  0  0  0  0  0  0  0  0  0  0  0
    9.2578  -11.1010   27.7569 H   0  0  0  0  0  0  0  0  0  0  0  0
    7.4022  -12.4739   31.0414 H   0  0  0  0  0  0  0  0  0  0  0  0
    7.4928  -10.7934   31.5654 H   0  0  0  0  0  0  0  0  0  0  0  0
    6.5297  -11.9437   32.4807 H   0  0  0  0  0  0  0  0  0  0  0  0
    5.5665   -9.1852   31.0843 H   0  0  0  0  0  0  0  0  0  0  0  0
    3.9920   -9.8277   30.6086 H   0  0  0  0  0  0  0  0  0  0  0  0
    4.6387  -10.1860   32.2141 H   0  0  0  0  0  0  0  0  0  0  0  0
    3.9839  -13.4450   28.7444 H   0  0  0  0  0  0  0  0  0  0  0  0
    2.9009  -15.2265   30.1534 H   0  0  0  0  0  0  0  0  0  0  0  0
    2.9211  -14.6199   32.6352 H   0  0  0  0  0  0  0  0  0  0  0  0
    7.0577   -8.7203   28.6108 H   0  0  0  0  0  0  0  0  0  0  0  0
    7.8578   -9.1952   30.0615 H   0  0  0  0  0  0  0  0  0  0  0  0
    9.4015   -7.7480   29.0840 H   0  0  0  0  0  0  0  0  0  0  0  0
   10.1077   -9.3323   28.7824 H   0  0  0  0  0  0  0  0  0  0  0  0
  1  2  1  0
  2  3  1  0
  3  4  1  0
  4  5  1  0
  3  6  1  0
  6  7  2  0
  6  8  1  0
  8  9  1  0
  9 10  1  0
 10 11  1  0
 11 12  1  0
 12 13  1  0
 13 14  2  0
 13 15  1  0
 15 16  1  0
 15 17  1  0
 15 18  1  0
 18 19  2  0
 19 20  1  0
 20 21  1  0
 21 22  2  0
 12 23  1  0
 23 24  1  0
 24  9  1  0
 22 18  1  0
  1 25  1  0
  1 26  1  0
  1 27  1  0
  2 28  1  0
  2 29  1  0
  3 30  1  0
  4 31  1  0
  4 32  1  0
  5 33  1  0
  5 34  1  0
  5 35  1  0
  8 36  1  0
  9 37  1  0
 10 38  1  0
 10 39  1  0
 11 40  1  0
 11 41  1  0
 16 42  1  0
 16 43  1  0
 16 44  1  0
 17 45  1  0
 17 46  1  0
 17 47  1  0
 19 48  1  0
 20 49  1  0
 21 50  1  0
 23 51  1  0
 23 52  1  0
 24 53  1  0
 24 54  1  0
M  END
>  <Energy>  (104) 
130.71955745606999

>  <compound_id>  (104) 
73152

>  <target_id>  (104) 
1

>  <reference_id>  (104) 
35

>  <inspiration_ids>  (104) 
[27, 35]

>  <energy_score>  (104) 
57.393528545102185

>  <distance_score>  (104) 
13.81552830630105

>  <path>  (104) 
/opt/xchem-fragalysis-2/maxwin/BulkDock/SCRATCH/511022/C73152-P35/C73152-P35.minimised.mol

>  <scratch_subdir>  (104) 
/opt/xchem-fragalysis-2/maxwin/BulkDock/SCRATCH/511022/C73152-P35

>  <fragmenstein_runtime>  (104) 
39.10461711883545

>  <fragmenstein_outcome>  (104) 
too moved

>  <fragmenstein_mode>  (104) 
expansion

>  <fragmenstein_error>  (104) 


$$$$
C76313-P27
     RDKit          3D

 49 50  0  0  0  0  0  0  0  0999 V2000
    5.6896   -6.9819   18.1738 C   0  0  0  0  0  0  0  0  0  0  0  0
    4.6130   -7.8125   17.4835 C   0  0  0  0  0  0  0  0  0  0  0  0
    4.9174   -9.3323   17.3244 C   0  0  0  0  0  0  0  0  0  0  0  0
    6.2319   -9.6120   16.5602 C   0  0  0  0  0  0  0  0  0  0  0  0
    6.4441   -8.8013   15.2830 C   0  0  0  0  0  0  0  0  0  0  0  0
    3.7308  -10.1020   16.6388 C   0  0  0  0  0  0  0  0  0  0  0  0
    3.1147   -9.5288   15.7841 O   0  0  0  0  0  0  0  0  0  0  0  0
    3.6242  -11.4694   17.1307 N   0  0  0  0  0  0  0  0  0  0  0  0
    2.8059  -12.5899   16.6728 C   0  0  0  0  0  0  0  0  0  0  0  0
    1.4105  -12.2184   16.2837 C   0  0  0  0  0  0  0  0  0  0  0  0
    0.3609  -13.1437   17.4135 C   0  0  0  0  0  0  0  0  0  0  0  0
    0.2307  -14.9822   18.0481 N   0  0  0  0  0  0  0  0  0  0  0  0
   -1.1997  -15.5806   18.7356 C   0  0  0  0  0  0  0  0  0  0  0  0
   -2.2551  -15.1340   18.8438 O   0  0  0  0  0  0  0  0  0  0  0  0
   -0.8291  -17.0792   19.1662 C   0  0  0  0  0  0  0  0  0  0  0  0
    0.5768  -17.2034   19.3896 O   0  0  0  0  0  0  0  0  0  0  0  0
   -1.6524  -17.8150   20.2763 C   0  0  0  0  0  0  0  0  0  0  0  0
   -1.2738  -18.9755   20.9452 C   0  0  0  0  0  0  0  0  0  0  0  0
   -2.3024  -19.3197   21.7814 N   0  0  0  0  0  0  0  0  0  0  0  0
   -3.2951  -18.4058   21.5841 C   0  0  0  0  0  0  0  0  0  0  0  0
   -2.9419  -17.4925   20.6981 N   0  0  0  0  0  0  0  0  0  0  0  0
    0.5758  -13.9150   17.3422 C   0  0  0  0  0  0  0  0  0  0  0  0
    2.4317  -13.6570   17.6772 C   0  0  0  0  0  0  0  0  0  0  0  0
    6.4504   -6.6834   17.4584 H   0  0  0  0  0  0  0  0  0  0  0  0
    5.2466   -6.0714   18.5857 H   0  0  0  0  0  0  0  0  0  0  0  0
    6.1504   -7.5329   18.9981 H   0  0  0  0  0  0  0  0  0  0  0  0
    4.3718   -7.3587   16.5147 H   0  0  0  0  0  0  0  0  0  0  0  0
    3.6923   -7.7303   18.0770 H   0  0  0  0  0  0  0  0  0  0  0  0
    5.0222   -9.7433   18.3377 H   0  0  0  0  0  0  0  0  0  0  0  0
    6.2713  -10.6754   16.2914 H   0  0  0  0  0  0  0  0  0  0  0  0
    7.0650   -9.4600   17.2502 H   0  0  0  0  0  0  0  0  0  0  0  0
    7.3889   -9.0875   14.8097 H   0  0  0  0  0  0  0  0  0  0  0  0
    5.6407   -8.9893   14.5643 H   0  0  0  0  0  0  0  0  0  0  0  0
    6.4791   -7.7306   15.4809 H   0  0  0  0  0  0  0  0  0  0  0  0
    4.3633  -11.6377   17.8051 H   0  0  0  0  0  0  0  0  0  0  0  0
    3.3343  -13.0249   15.8181 H   0  0  0  0  0  0  0  0  0  0  0  0
    1.1617  -12.5242   15.2594 H   0  0  0  0  0  0  0  0  0  0  0  0
    1.1457  -11.1655   16.4230 H   0  0  0  0  0  0  0  0  0  0  0  0
   -0.7815  -12.7586   17.1447 H   0  0  0  0  0  0  0  0  0  0  0  0
    0.3762  -12.4553   18.4038 H   0  0  0  0  0  0  0  0  0  0  0  0
   -1.0298  -17.6582   18.2533 H   0  0  0  0  0  0  0  0  0  0  0  0
    0.9644  -16.4619   18.8829 H   0  0  0  0  0  0  0  0  0  0  0  0
   -0.3490  -19.5372   20.9282 H   0  0  0  0  0  0  0  0  0  0  0  0
   -2.2797  -20.0645   22.4664 H   0  0  0  0  0  0  0  0  0  0  0  0
   -4.2354  -18.4434   22.1159 H   0  0  0  0  0  0  0  0  0  0  0  0
    0.0064  -14.2278   16.1588 H   0  0  0  0  0  0  0  0  0  0  0  0
    1.1869  -14.7135   16.6621 H   0  0  0  0  0  0  0  0  0  0  0  0
    2.9590  -14.6103   17.5389 H   0  0  0  0  0  0  0  0  0  0  0  0
    2.5478  -13.3469   18.7182 H   0  0  0  0  0  0  0  0  0  0  0  0
  1  2  1  0
  2  3  1  0
  3  4  1  0
  4  5  1  0
  3  6  1  0
  6  7  2  0
  6  8  1  0
  8  9  1  0
  9 10  1  0
 10 11  1  0
 11 12  1  0
 12 13  1  0
 13 14  2  0
 13 15  1  0
 15 16  1  0
 15 17  1  0
 17 18  2  0
 18 19  1  0
 19 20  1  0
 20 21  2  0
 12 22  1  0
 22 23  1  0
 23  9  1  0
 21 17  1  0
  1 24  1  0
  1 25  1  0
  1 26  1  0
  2 27  1  0
  2 28  1  0
  3 29  1  0
  4 30  1  0
  4 31  1  0
  5 32  1  0
  5 33  1  0
  5 34  1  0
  8 35  1  0
  9 36  1  0
 10 37  1  0
 10 38  1  0
 11 39  1  0
 11 40  1  0
 15 41  1  0
 16 42  1  0
 18 43  1  0
 19 44  1  0
 20 45  1  0
 22 46  1  0
 22 47  1  0
 23 48  1  0
 23 49  1  0
M  END
>  <Energy>  (105) 
829.24130276380868

>  <compound_id>  (105) 
76313

>  <target_id>  (105) 
1

>  <reference_id>  (105) 
27

>  <inspiration_ids>  (105) 
[27, 35]

>  <energy_score>  (105) 
738.262149434666

>  <distance_score>  (105) 
14.475072620247744

>  <path>  (105) 
/opt/xchem-fragalysis-2/maxwin/BulkDock/SCRATCH/511022/C76313-P27/C76313-P27.minimised.mol

>  <scratch_subdir>  (105) 
/opt/xchem-fragalysis-2/maxwin/BulkDock/SCRATCH/511022/C76313-P27

>  <fragmenstein_runtime>  (105) 
31.421239852905273

>  <fragmenstein_outcome>  (105) 
too moved

>  <fragmenstein_mode>  (105) 
expansion

>  <fragmenstein_error>  (105) 


$$$$
C76313-P35
     RDKit          3D

 49 50  0  0  0  0  0  0  0  0999 V2000
   15.4320   -1.9024   19.9744 C   0  0  0  0  0  0  0  0  0  0  0  0
   15.0383   -2.6859   21.2200 C   0  0  0  0  0  0  0  0  0  0  0  0
   14.5016   -4.1366   21.0336 C   0  0  0  0  0  0  0  0  0  0  0  0
   13.3034   -4.1949   20.0687 C   0  0  0  0  0  0  0  0  0  0  0  0
   13.6243   -4.0294   18.5834 C   0  0  0  0  0  0  0  0  0  0  0  0
   14.1782   -4.7623   22.4650 C   0  0  0  0  0  0  0  0  0  0  0  0
   14.2958   -4.0687   23.4341 O   0  0  0  0  0  0  0  0  0  0  0  0
   13.8658   -6.1696   22.3461 N   0  0  0  0  0  0  0  0  0  0  0  0
   13.6942   -7.1919   23.3564 C   0  0  0  0  0  0  0  0  0  0  0  0
   13.2737   -8.5391   22.8309 C   0  0  0  0  0  0  0  0  0  0  0  0
   12.5247   -9.2473   24.2817 C   0  0  0  0  0  0  0  0  0  0  0  0
   10.7079   -8.9452   24.9627 N   0  0  0  0  0  0  0  0  0  0  0  0
    9.9597  -10.0003   25.9834 C   0  0  0  0  0  0  0  0  0  0  0  0
   10.3323  -10.9451   26.5352 O   0  0  0  0  0  0  0  0  0  0  0  0
    8.4524   -9.5071   26.0378 C   0  0  0  0  0  0  0  0  0  0  0  0
    8.3524   -8.1151   26.3640 O   0  0  0  0  0  0  0  0  0  0  0  0
    7.5201  -10.3533   26.9376 C   0  0  0  0  0  0  0  0  0  0  0  0
    6.9583  -10.0259   28.1687 C   0  0  0  0  0  0  0  0  0  0  0  0
    6.0827  -11.0231   28.4819 N   0  0  0  0  0  0  0  0  0  0  0  0
    6.1392  -11.8947   27.4421 C   0  0  0  0  0  0  0  0  0  0  0  0
    6.9824  -11.5511   26.5047 N   0  0  0  0  0  0  0  0  0  0  0  0
   11.9389   -8.7617   24.5489 C   0  0  0  0  0  0  0  0  0  0  0  0
   12.6256   -7.0151   24.4231 C   0  0  0  0  0  0  0  0  0  0  0  0
   14.5560   -1.4939   19.4668 H   0  0  0  0  0  0  0  0  0  0  0  0
   16.0522   -1.0456   20.2601 H   0  0  0  0  0  0  0  0  0  0  0  0
   16.0126   -2.5171   19.2809 H   0  0  0  0  0  0  0  0  0  0  0  0
   14.3070   -2.0905   21.7799 H   0  0  0  0  0  0  0  0  0  0  0  0
   15.9264   -2.7438   21.8640 H   0  0  0  0  0  0  0  0  0  0  0  0
   15.3190   -4.7461   20.6244 H   0  0  0  0  0  0  0  0  0  0  0  0
   12.5928   -3.4305   20.3767 H   0  0  0  0  0  0  0  0  0  0  0  0
   12.7764   -5.1466   20.1802 H   0  0  0  0  0  0  0  0  0  0  0  0
   14.5754   -4.5030   18.3265 H   0  0  0  0  0  0  0  0  0  0  0  0
   13.6665   -2.9812   18.2852 H   0  0  0  0  0  0  0  0  0  0  0  0
   12.8402   -4.4832   17.9712 H   0  0  0  0  0  0  0  0  0  0  0  0
   13.7664   -6.4035   21.3681 H   0  0  0  0  0  0  0  0  0  0  0  0
   14.6646   -7.2804   23.8598 H   0  0  0  0  0  0  0  0  0  0  0  0
   14.1235   -9.1663   22.5433 H   0  0  0  0  0  0  0  0  0  0  0  0
   12.5373   -8.5069   22.0195 H   0  0  0  0  0  0  0  0  0  0  0  0
   12.3866  -10.3763   23.8478 H   0  0  0  0  0  0  0  0  0  0  0  0
   13.4000   -9.6080   25.0870 H   0  0  0  0  0  0  0  0  0  0  0  0
    8.0685   -9.6120   25.0147 H   0  0  0  0  0  0  0  0  0  0  0  0
    8.8282   -8.0170   27.2063 H   0  0  0  0  0  0  0  0  0  0  0  0
    7.0882   -9.1661   28.8104 H   0  0  0  0  0  0  0  0  0  0  0  0
    5.4919  -11.1016   29.3078 H   0  0  0  0  0  0  0  0  0  0  0  0
    5.5050  -12.7559   27.4195 H   0  0  0  0  0  0  0  0  0  0  0  0
   12.0101   -8.4175   25.7473 H   0  0  0  0  0  0  0  0  0  0  0  0
   11.2091   -8.2498   23.6724 H   0  0  0  0  0  0  0  0  0  0  0  0
   11.8215   -6.3189   24.1901 H   0  0  0  0  0  0  0  0  0  0  0  0
   13.0664   -6.7454   25.3919 H   0  0  0  0  0  0  0  0  0  0  0  0
  1  2  1  0
  2  3  1  0
  3  4  1  0
  4  5  1  0
  3  6  1  0
  6  7  2  0
  6  8  1  0
  8  9  1  0
  9 10  1  0
 10 11  1  0
 11 12  1  0
 12 13  1  0
 13 14  2  0
 13 15  1  0
 15 16  1  0
 15 17  1  0
 17 18  2  0
 18 19  1  0
 19 20  1  0
 20 21  2  0
 12 22  1  0
 22 23  1  0
 23  9  1  0
 21 17  1  0
  1 24  1  0
  1 25  1  0
  1 26  1  0
  2 27  1  0
  2 28  1  0
  3 29  1  0
  4 30  1  0
  4 31  1  0
  5 32  1  0
  5 33  1  0
  5 34  1  0
  8 35  1  0
  9 36  1  0
 10 37  1  0
 10 38  1  0
 11 39  1  0
 11 40  1  0
 15 41  1  0
 16 42  1  0
 18 43  1  0
 19 44  1  0
 20 45  1  0
 22 46  1  0
 22 47  1  0
 23 48  1  0
 23 49  1  0
M  END
>  <Energy>  (106) 
831.38952088705867

>  <compound_id>  (106) 
76313

>  <target_id>  (106) 
1

>  <reference_id>  (106) 
35

>  <inspiration_ids>  (106) 
[27, 35]

>  <energy_score>  (106) 
740.4103675579281

>  <distance_score>  (106) 
13.921897481308154

>  <path>  (106) 
/opt/xchem-fragalysis-2/maxwin/BulkDock/SCRATCH/511022/C76313-P35/C76313-P35.minimised.mol

>  <scratch_subdir>  (106) 
/opt/xchem-fragalysis-2/maxwin/BulkDock/SCRATCH/511022/C76313-P35

>  <fragmenstein_runtime>  (106) 
33.28352999687195

>  <fragmenstein_outcome>  (106) 
too moved

>  <fragmenstein_mode>  (106) 
expansion

>  <fragmenstein_error>  (106) 


$$$$
C23878-P27
     RDKit          3D

 48 49  0  0  0  0  0  0  0  0999 V2000
   12.5541   -6.0295   24.6462 C   0  0  0  0  0  0  0  0  0  0  0  0
   12.3179   -7.2884   25.4995 C   0  0  0  0  0  0  0  0  0  0  0  0
   11.2527   -8.2752   24.9625 C   0  0  0  0  0  0  0  0  0  0  0  0
   11.8096   -9.3592   24.0221 C   0  0  0  0  0  0  0  0  0  0  0  0
   12.1328   -8.8821   22.5997 C   0  0  0  0  0  0  0  0  0  0  0  0
   10.1455   -8.7692   25.9968 C   0  0  0  0  0  0  0  0  0  0  0  0
    9.0343   -8.4117   25.7050 O   0  0  0  0  0  0  0  0  0  0  0  0
   10.6293   -9.4967   27.1509 N   0  0  0  0  0  0  0  0  0  0  0  0
    9.9308   -9.9432   28.3798 C   0  0  0  0  0  0  0  0  0  0  0  0
    8.6612  -10.7385   28.1531 C   0  0  0  0  0  0  0  0  0  0  0  0
    7.9938  -10.9191   29.5439 C   0  0  0  0  0  0  0  0  0  0  0  0
    8.3960  -11.9695   30.5659 N   0  0  0  0  0  0  0  0  0  0  0  0
    7.8645  -12.2433   31.9287 C   0  0  0  0  0  0  0  0  0  0  0  0
    7.0481  -11.6401   32.5858 O   0  0  0  0  0  0  0  0  0  0  0  0
    8.3984  -13.5914   32.5732 C   0  0  0  0  0  0  0  0  0  0  0  0
    7.3234  -14.5264   33.2536 C   0  0  0  0  0  0  0  0  0  0  0  0
    6.2099  -14.3047   34.0563 C   0  0  0  0  0  0  0  0  0  0  0  0
    5.5295  -15.4704   34.3658 N   0  0  0  0  0  0  0  0  0  0  0  0
    6.2564  -16.4226   33.8396 C   0  0  0  0  0  0  0  0  0  0  0  0
    7.3524  -15.9144   33.1948 N   0  0  0  0  0  0  0  0  0  0  0  0
    9.6683  -11.0738   30.6553 C   0  0  0  0  0  0  0  0  0  0  0  0
   10.6445  -10.8014   29.4171 C   0  0  0  0  0  0  0  0  0  0  0  0
   12.7970   -6.2654   23.6103 H   0  0  0  0  0  0  0  0  0  0  0  0
   13.3894   -5.4572   25.0633 H   0  0  0  0  0  0  0  0  0  0  0  0
   11.6747   -5.3821   24.6697 H   0  0  0  0  0  0  0  0  0  0  0  0
   12.0237   -6.9535   26.5018 H   0  0  0  0  0  0  0  0  0  0  0  0
   13.2725   -7.8136   25.6233 H   0  0  0  0  0  0  0  0  0  0  0  0
   10.6335   -7.6730   24.3001 H   0  0  0  0  0  0  0  0  0  0  0  0
   12.7053   -9.8097   24.4659 H   0  0  0  0  0  0  0  0  0  0  0  0
   11.0741  -10.1696   23.9411 H   0  0  0  0  0  0  0  0  0  0  0  0
   12.9295   -8.1368   22.5922 H   0  0  0  0  0  0  0  0  0  0  0  0
   11.2458   -8.4779   22.1091 H   0  0  0  0  0  0  0  0  0  0  0  0
   12.4787   -9.7327   22.0027 H   0  0  0  0  0  0  0  0  0  0  0  0
   11.6414   -9.5514   27.1063 H   0  0  0  0  0  0  0  0  0  0  0  0
    9.6560   -8.9932   28.8587 H   0  0  0  0  0  0  0  0  0  0  0  0
    8.8583  -11.7100   27.6841 H   0  0  0  0  0  0  0  0  0  0  0  0
    7.9778  -10.1889   27.4963 H   0  0  0  0  0  0  0  0  0  0  0  0
    6.9792  -11.2696   29.2972 H   0  0  0  0  0  0  0  0  0  0  0  0
    7.7609   -9.9551   30.0303 H   0  0  0  0  0  0  0  0  0  0  0  0
    9.1024  -13.2946   33.3612 H   0  0  0  0  0  0  0  0  0  0  0  0
    8.9751  -14.1518   31.8310 H   0  0  0  0  0  0  0  0  0  0  0  0
    5.8428  -13.3428   34.3935 H   0  0  0  0  0  0  0  0  0  0  0  0
    6.0664  -17.4844   33.9022 H   0  0  0  0  0  0  0  0  0  0  0  0
    8.0526  -16.4659   32.7212 H   0  0  0  0  0  0  0  0  0  0  0  0
    9.4462  -10.1401   31.2009 H   0  0  0  0  0  0  0  0  0  0  0  0
   10.2976  -11.6260   31.3704 H   0  0  0  0  0  0  0  0  0  0  0  0
   10.9660  -11.7583   28.9879 H   0  0  0  0  0  0  0  0  0  0  0  0
   11.5416  -10.2859   29.7783 H   0  0  0  0  0  0  0  0  0  0  0  0
  1  2  1  0
  2  3  1  0
  3  4  1  0
  4  5  1  0
  3  6  1  0
  6  7  2  0
  6  8  1  0
  8  9  1  0
  9 10  1  0
 10 11  1  0
 11 12  1  0
 12 13  1  0
 13 14  2  0
 13 15  1  0
 15 16  1  0
 16 17  2  0
 17 18  1  0
 18 19  2  0
 19 20  1  0
 12 21  1  0
 21 22  1  0
 22  9  1  0
 20 16  1  0
  1 23  1  0
  1 24  1  0
  1 25  1  0
  2 26  1  0
  2 27  1  0
  3 28  1  0
  4 29  1  0
  4 30  1  0
  5 31  1  0
  5 32  1  0
  5 33  1  0
  8 34  1  0
  9 35  1  0
 10 36  1  0
 10 37  1  0
 11 38  1  0
 11 39  1  0
 15 40  1  0
 15 41  1  0
 17 42  1  0
 19 43  1  0
 20 44  1  0
 21 45  1  0
 21 46  1  0
 22 47  1  0
 22 48  1  0
M  END
>  <Energy>  (107) 
102.04986364167011

>  <compound_id>  (107) 
23878

>  <target_id>  (107) 
1

>  <reference_id>  (107) 
27

>  <inspiration_ids>  (107) 
[27, 35]

>  <energy_score>  (107) 
59.40429558321512

>  <distance_score>  (107) 
14.921468230954284

>  <path>  (107) 
/opt/xchem-fragalysis-2/maxwin/BulkDock/SCRATCH/511022/C23878-P27/C23878-P27.minimised.mol

>  <scratch_subdir>  (107) 
/opt/xchem-fragalysis-2/maxwin/BulkDock/SCRATCH/511022/C23878-P27

>  <fragmenstein_runtime>  (107) 
36.90434217453003

>  <fragmenstein_outcome>  (107) 
too moved

>  <fragmenstein_mode>  (107) 
expansion

>  <fragmenstein_error>  (107) 


$$$$
C23878-P35
     RDKit          3D

 48 49  0  0  0  0  0  0  0  0999 V2000
   14.6842   -2.1184   21.0645 C   0  0  0  0  0  0  0  0  0  0  0  0
   14.5536   -3.5085   21.6847 C   0  0  0  0  0  0  0  0  0  0  0  0
   14.1298   -4.6660   20.7499 C   0  0  0  0  0  0  0  0  0  0  0  0
   14.7660   -4.5220   19.3361 C   0  0  0  0  0  0  0  0  0  0  0  0
   13.8395   -3.9088   18.2872 C   0  0  0  0  0  0  0  0  0  0  0  0
   14.5074   -6.0589   21.4137 C   0  0  0  0  0  0  0  0  0  0  0  0
   15.4352   -6.6694   20.9667 O   0  0  0  0  0  0  0  0  0  0  0  0
   13.6050   -6.3771   22.4992 N   0  0  0  0  0  0  0  0  0  0  0  0
   13.6018   -7.4977   23.4534 C   0  0  0  0  0  0  0  0  0  0  0  0
   12.6811   -7.2971   24.6488 C   0  0  0  0  0  0  0  0  0  0  0  0
   11.3784   -8.0843   24.3788 C   0  0  0  0  0  0  0  0  0  0  0  0
   11.0298   -9.5344   24.4676 N   0  0  0  0  0  0  0  0  0  0  0  0
   10.7897  -10.3771   25.6195 C   0  0  0  0  0  0  0  0  0  0  0  0
   10.8999  -10.1433   26.7949 O   0  0  0  0  0  0  0  0  0  0  0  0
   10.2071  -11.7445   25.1771 C   0  0  0  0  0  0  0  0  0  0  0  0
    8.7387  -11.8998   25.5256 C   0  0  0  0  0  0  0  0  0  0  0  0
    8.0492  -12.5677   26.5199 C   0  0  0  0  0  0  0  0  0  0  0  0
    6.6911  -12.4168   26.3737 N   0  0  0  0  0  0  0  0  0  0  0  0
    6.5568  -11.5531   25.4018 C   0  0  0  0  0  0  0  0  0  0  0  0
    7.7493  -11.2764   24.8114 N   0  0  0  0  0  0  0  0  0  0  0  0
   12.4975   -9.6922   23.9891 C   0  0  0  0  0  0  0  0  0  0  0  0
   13.1630   -8.8374   22.8464 C   0  0  0  0  0  0  0  0  0  0  0  0
   15.5546   -2.0446   20.4070 H   0  0  0  0  0  0  0  0  0  0  0  0
   14.8189   -1.3739   21.8564 H   0  0  0  0  0  0  0  0  0  0  0  0
   13.7972   -1.8458   20.4996 H   0  0  0  0  0  0  0  0  0  0  0  0
   15.5144   -3.7576   22.1540 H   0  0  0  0  0  0  0  0  0  0  0  0
   13.8319   -3.4512   22.5094 H   0  0  0  0  0  0  0  0  0  0  0  0
   13.0376   -4.6571   20.6377 H   0  0  0  0  0  0  0  0  0  0  0  0
   15.0829   -5.4983   18.9698 H   0  0  0  0  0  0  0  0  0  0  0  0
   15.6970   -3.9466   19.3817 H   0  0  0  0  0  0  0  0  0  0  0  0
   14.3367   -3.8970   17.3118 H   0  0  0  0  0  0  0  0  0  0  0  0
   12.9212   -4.4912   18.1873 H   0  0  0  0  0  0  0  0  0  0  0  0
   13.5730   -2.8808   18.5332 H   0  0  0  0  0  0  0  0  0  0  0  0
   12.9853   -5.5870   22.6569 H   0  0  0  0  0  0  0  0  0  0  0  0
   14.6367   -7.5813   23.8067 H   0  0  0  0  0  0  0  0  0  0  0  0
   13.1474   -7.6498   25.5768 H   0  0  0  0  0  0  0  0  0  0  0  0
   12.4549   -6.2336   24.7901 H   0  0  0  0  0  0  0  0  0  0  0  0
   10.9911   -7.8153   23.3977 H   0  0  0  0  0  0  0  0  0  0  0  0
   10.6597   -7.6483   25.0888 H   0  0  0  0  0  0  0  0  0  0  0  0
   10.3375  -11.8823   24.0974 H   0  0  0  0  0  0  0  0  0  0  0  0
   10.7984  -12.5206   25.6723 H   0  0  0  0  0  0  0  0  0  0  0  0
    8.4707  -13.1390   27.3353 H   0  0  0  0  0  0  0  0  0  0  0  0
    5.6524  -11.0957   25.0383 H   0  0  0  0  0  0  0  0  0  0  0  0
    7.8861  -10.6402   24.0390 H   0  0  0  0  0  0  0  0  0  0  0  0
   13.1586   -9.7749   24.8689 H   0  0  0  0  0  0  0  0  0  0  0  0
   12.4951  -10.7199   23.5939 H   0  0  0  0  0  0  0  0  0  0  0  0
   14.0418   -9.3623   22.4538 H   0  0  0  0  0  0  0  0  0  0  0  0
   12.4658   -8.7093   22.0107 H   0  0  0  0  0  0  0  0  0  0  0  0
  1  2  1  0
  2  3  1  0
  3  4  1  0
  4  5  1  0
  3  6  1  0
  6  7  2  0
  6  8  1  0
  8  9  1  0
  9 10  1  0
 10 11  1  0
 11 12  1  0
 12 13  1  0
 13 14  2  0
 13 15  1  0
 15 16  1  0
 16 17  2  0
 17 18  1  0
 18 19  2  0
 19 20  1  0
 12 21  1  0
 21 22  1  0
 22  9  1  0
 20 16  1  0
  1 23  1  0
  1 24  1  0
  1 25  1  0
  2 26  1  0
  2 27  1  0
  3 28  1  0
  4 29  1  0
  4 30  1  0
  5 31  1  0
  5 32  1  0
  5 33  1  0
  8 34  1  0
  9 35  1  0
 10 36  1  0
 10 37  1  0
 11 38  1  0
 11 39  1  0
 15 40  1  0
 15 41  1  0
 17 42  1  0
 19 43  1  0
 20 44  1  0
 21 45  1  0
 21 46  1  0
 22 47  1  0
 22 48  1  0
M  END
>  <Energy>  (108) 
98.11317102487979

>  <compound_id>  (108) 
23878

>  <target_id>  (108) 
1

>  <reference_id>  (108) 
35

>  <inspiration_ids>  (108) 
[27, 35]

>  <energy_score>  (108) 
55.46760296642469

>  <distance_score>  (108) 
13.63138550315385

>  <path>  (108) 
/opt/xchem-fragalysis-2/maxwin/BulkDock/SCRATCH/511022/C23878-P35/C23878-P35.minimised.mol

>  <scratch_subdir>  (108) 
/opt/xchem-fragalysis-2/maxwin/BulkDock/SCRATCH/511022/C23878-P35

>  <fragmenstein_runtime>  (108) 
29.899354934692383

>  <fragmenstein_outcome>  (108) 
too moved

>  <fragmenstein_mode>  (108) 
expansion

>  <fragmenstein_error>  (108) 


$$$$
C73150-P27
     RDKit          3D

 54 55  0  0  0  0  0  0  0  0999 V2000
   14.2922   -4.0883   20.6512 C   0  0  0  0  0  0  0  0  0  0  0  0
   12.8188   -4.0750   20.2587 C   0  0  0  0  0  0  0  0  0  0  0  0
   12.4677   -4.9313   19.0139 C   0  0  0  0  0  0  0  0  0  0  0  0
   13.3753   -4.4758   17.8013 C   0  0  0  0  0  0  0  0  0  0  0  0
   13.2663   -3.0241   17.3508 C   0  0  0  0  0  0  0  0  0  0  0  0
   10.7816   -5.2314   18.2479 C   0  0  0  0  0  0  0  0  0  0  0  0
   10.7473   -4.7826   17.0840 O   0  0  0  0  0  0  0  0  0  0  0  0
    9.4616   -6.0649   19.2889 N   0  0  0  0  0  0  0  0  0  0  0  0
    7.3996   -6.4474   18.9742 C   0  0  0  0  0  0  0  0  0  0  0  0
    6.4955   -6.6033   17.6523 C   0  0  0  0  0  0  0  0  0  0  0  0
    5.9647   -8.0334   17.4880 C   0  0  0  0  0  0  0  0  0  0  0  0
    6.6293   -8.9429   18.4927 C   0  0  0  0  0  0  0  0  0  0  0  0
    6.8818   -8.0566   19.7169 C   0  0  0  0  0  0  0  0  0  0  0  0
    5.6689   -8.2639   20.6126 N   0  0  0  0  0  0  0  0  0  0  0  0
    5.0916   -9.5250   21.2141 C   0  0  0  0  0  0  0  0  0  0  0  0
    5.5005  -10.6582   21.1931 O   0  0  0  0  0  0  0  0  0  0  0  0
    3.6698   -9.3168   21.9950 C   0  0  0  0  0  0  0  0  0  0  0  0
    3.9407   -8.3875   23.1936 C   0  0  0  0  0  0  0  0  0  0  0  0
    2.6713   -8.6360   21.0346 C   0  0  0  0  0  0  0  0  0  0  0  0
    2.9357  -10.6757   22.5393 C   0  0  0  0  0  0  0  0  0  0  0  0
    2.4134  -11.7647   21.8462 C   0  0  0  0  0  0  0  0  0  0  0  0
    1.6700  -12.4969   22.7446 N   0  0  0  0  0  0  0  0  0  0  0  0
    1.7721  -11.8843   23.9567 C   0  0  0  0  0  0  0  0  0  0  0  0
    2.5045  -10.7928   23.8715 N   0  0  0  0  0  0  0  0  0  0  0  0
   14.6623   -5.1127   20.7581 H   0  0  0  0  0  0  0  0  0  0  0  0
   14.9177   -3.5636   19.9238 H   0  0  0  0  0  0  0  0  0  0  0  0
   14.4236   -3.5818   21.6134 H   0  0  0  0  0  0  0  0  0  0  0  0
   12.5819   -3.0366   20.0956 H   0  0  0  0  0  0  0  0  0  0  0  0
   12.2354   -4.4202   21.1160 H   0  0  0  0  0  0  0  0  0  0  0  0
   12.8222   -5.8756   19.3730 H   0  0  0  0  0  0  0  0  0  0  0  0
   14.4257   -4.6757   18.0407 H   0  0  0  0  0  0  0  0  0  0  0  0
   13.1505   -5.0916   16.9254 H   0  0  0  0  0  0  0  0  0  0  0  0
   12.2462   -2.7453   17.0845 H   0  0  0  0  0  0  0  0  0  0  0  0
   13.8872   -2.8704   16.4613 H   0  0  0  0  0  0  0  0  0  0  0  0
   13.6358   -2.3398   18.1177 H   0  0  0  0  0  0  0  0  0  0  0  0
    9.7992   -6.2217   20.1925 H   0  0  0  0  0  0  0  0  0  0  0  0
    6.8615   -5.6772   19.5916 H   0  0  0  0  0  0  0  0  0  0  0  0
    6.8735   -6.2663   16.6906 H   0  0  0  0  0  0  0  0  0  0  0  0
    5.5946   -6.0040   17.8312 H   0  0  0  0  0  0  0  0  0  0  0  0
    6.1146   -8.4002   16.4664 H   0  0  0  0  0  0  0  0  0  0  0  0
    4.8795   -8.0344   17.6538 H   0  0  0  0  0  0  0  0  0  0  0  0
    5.9878   -9.8072   18.6951 H   0  0  0  0  0  0  0  0  0  0  0  0
    7.5579   -9.3756   18.1129 H   0  0  0  0  0  0  0  0  0  0  0  0
    7.7181   -8.5167   20.2512 H   0  0  0  0  0  0  0  0  0  0  0  0
    5.0203   -7.5006   20.7532 H   0  0  0  0  0  0  0  0  0  0  0  0
    3.0196   -8.1602   23.7421 H   0  0  0  0  0  0  0  0  0  0  0  0
    4.6419   -8.8552   23.8945 H   0  0  0  0  0  0  0  0  0  0  0  0
    4.3798   -7.4334   22.8840 H   0  0  0  0  0  0  0  0  0  0  0  0
    1.6747   -8.5619   21.4856 H   0  0  0  0  0  0  0  0  0  0  0  0
    2.9769   -7.6212   20.7623 H   0  0  0  0  0  0  0  0  0  0  0  0
    2.5746   -9.2086   20.1049 H   0  0  0  0  0  0  0  0  0  0  0  0
    2.4644  -12.0351   20.8011 H   0  0  0  0  0  0  0  0  0  0  0  0
    1.1021  -13.3036   22.5349 H   0  0  0  0  0  0  0  0  0  0  0  0
    1.2872  -12.2544   24.8499 H   0  0  0  0  0  0  0  0  0  0  0  0
  1  2  1  0
  2  3  1  0
  3  4  1  0
  4  5  1  0
  3  6  1  0
  6  7  2  0
  6  8  1  0
  8  9  1  0
  9 10  1  0
 10 11  1  0
 11 12  1  0
 12 13  1  0
 13 14  1  0
 14 15  1  0
 15 16  2  0
 15 17  1  0
 17 18  1  0
 17 19  1  0
 17 20  1  0
 20 21  2  0
 21 22  1  0
 22 23  1  0
 23 24  2  0
 13  9  1  0
 24 20  1  0
  1 25  1  0
  1 26  1  0
  1 27  1  0
  2 28  1  0
  2 29  1  0
  3 30  1  0
  4 31  1  0
  4 32  1  0
  5 33  1  0
  5 34  1  0
  5 35  1  0
  8 36  1  0
  9 37  1  0
 10 38  1  0
 10 39  1  0
 11 40  1  0
 11 41  1  0
 12 42  1  0
 12 43  1  0
 13 44  1  0
 14 45  1  0
 18 46  1  0
 18 47  1  0
 18 48  1  0
 19 49  1  0
 19 50  1  0
 19 51  1  0
 21 52  1  0
 22 53  1  0
 23 54  1  0
M  END
>  <Energy>  (109) 
337.20609817058318

>  <compound_id>  (109) 
73150

>  <target_id>  (109) 
1

>  <reference_id>  (109) 
27

>  <inspiration_ids>  (109) 
[27, 35]

>  <energy_score>  (109) 
264.47077285138175

>  <distance_score>  (109) 
13.216022067520333

>  <path>  (109) 
/opt/xchem-fragalysis-2/maxwin/BulkDock/SCRATCH/511022/C73150-P27/C73150-P27.minimised.mol

>  <scratch_subdir>  (109) 
/opt/xchem-fragalysis-2/maxwin/BulkDock/SCRATCH/511022/C73150-P27

>  <fragmenstein_runtime>  (109) 
41.34223961830139

>  <fragmenstein_outcome>  (109) 
too moved

>  <fragmenstein_mode>  (109) 
expansion

>  <fragmenstein_error>  (109) 


$$$$
C73150-P35
     RDKit          3D

 54 55  0  0  0  0  0  0  0  0999 V2000
    6.3791   -9.1769   20.7971 C   0  0  0  0  0  0  0  0  0  0  0  0
    6.1883  -10.4976   21.5526 C   0  0  0  0  0  0  0  0  0  0  0  0
    6.0348  -11.8305   20.7326 C   0  0  0  0  0  0  0  0  0  0  0  0
    7.1918  -11.9322   19.6779 C   0  0  0  0  0  0  0  0  0  0  0  0
    7.0781  -11.0635   18.4171 C   0  0  0  0  0  0  0  0  0  0  0  0
    6.0474  -13.0947   21.7695 C   0  0  0  0  0  0  0  0  0  0  0  0
    7.0952  -13.6700   21.9195 O   0  0  0  0  0  0  0  0  0  0  0  0
    4.7363  -13.2721   22.4557 N   0  0  0  0  0  0  0  0  0  0  0  0
    4.3062  -14.2139   23.7038 C   0  0  0  0  0  0  0  0  0  0  0  0
    4.9986  -13.3158   24.7586 C   0  0  0  0  0  0  0  0  0  0  0  0
    6.4127  -13.8589   24.7598 C   0  0  0  0  0  0  0  0  0  0  0  0
    6.3157  -15.4152   24.5758 C   0  0  0  0  0  0  0  0  0  0  0  0
    4.6263  -15.9516   24.4992 C   0  0  0  0  0  0  0  0  0  0  0  0
    3.2720  -17.4268   24.9232 N   0  0  0  0  0  0  0  0  0  0  0  0
    2.1905  -17.6809   26.4021 C   0  0  0  0  0  0  0  0  0  0  0  0
    2.2391  -17.0410   27.4435 O   0  0  0  0  0  0  0  0  0  0  0  0
    0.5059  -19.0123   26.2333 C   0  0  0  0  0  0  0  0  0  0  0  0
   -0.9604  -18.2572   26.4729 C   0  0  0  0  0  0  0  0  0  0  0  0
    0.8830  -19.1237   24.6181 C   0  0  0  0  0  0  0  0  0  0  0  0
   -0.2170  -20.7654   27.3402 C   0  0  0  0  0  0  0  0  0  0  0  0
    0.7759  -22.2331   27.4565 C   0  0  0  0  0  0  0  0  0  0  0  0
    0.1144  -23.3511   27.7006 N   0  0  0  0  0  0  0  0  0  0  0  0
   -0.9733  -22.7160   28.1940 C   0  0  0  0  0  0  0  0  0  0  0  0
   -0.9764  -21.2709   28.3613 N   0  0  0  0  0  0  0  0  0  0  0  0
    6.2148   -8.3375   21.4808 H   0  0  0  0  0  0  0  0  0  0  0  0
    7.3978   -9.0886   20.4162 H   0  0  0  0  0  0  0  0  0  0  0  0
    5.6616   -9.0837   19.9772 H   0  0  0  0  0  0  0  0  0  0  0  0
    7.0228  -10.6121   22.2570 H   0  0  0  0  0  0  0  0  0  0  0  0
    5.2920  -10.3979   22.1787 H   0  0  0  0  0  0  0  0  0  0  0  0
    5.0704  -11.8436   20.2113 H   0  0  0  0  0  0  0  0  0  0  0  0
    7.2257  -12.9765   19.3394 H   0  0  0  0  0  0  0  0  0  0  0  0
    8.1581  -11.7448   20.1623 H   0  0  0  0  0  0  0  0  0  0  0  0
    6.0504  -11.0510   18.0421 H   0  0  0  0  0  0  0  0  0  0  0  0
    7.4135  -10.0388   18.5705 H   0  0  0  0  0  0  0  0  0  0  0  0
    7.7169  -11.4808   17.6308 H   0  0  0  0  0  0  0  0  0  0  0  0
    4.0941  -12.5590   22.1349 H   0  0  0  0  0  0  0  0  0  0  0  0
    3.2466  -14.0501   23.6343 H   0  0  0  0  0  0  0  0  0  0  0  0
    4.5115  -13.4033   25.7349 H   0  0  0  0  0  0  0  0  0  0  0  0
    4.9891  -12.2436   24.5266 H   0  0  0  0  0  0  0  0  0  0  0  0
    7.0611  -13.4033   24.0212 H   0  0  0  0  0  0  0  0  0  0  0  0
    6.9344  -13.5724   25.6801 H   0  0  0  0  0  0  0  0  0  0  0  0
    6.8578  -15.6906   25.4524 H   0  0  0  0  0  0  0  0  0  0  0  0
    6.8961  -15.7389   23.7105 H   0  0  0  0  0  0  0  0  0  0  0  0
    4.2950  -15.3763   25.4263 H   0  0  0  0  0  0  0  0  0  0  0  0
    3.0827  -18.1361   24.2387 H   0  0  0  0  0  0  0  0  0  0  0  0
   -1.5376  -17.7949   25.7018 H   0  0  0  0  0  0  0  0  0  0  0  0
   -0.8777  -17.5220   27.2183 H   0  0  0  0  0  0  0  0  0  0  0  0
   -1.7152  -18.9995   26.6938 H   0  0  0  0  0  0  0  0  0  0  0  0
    0.3766  -19.6197   23.7305 H   0  0  0  0  0  0  0  0  0  0  0  0
    1.9364  -19.0655   24.4639 H   0  0  0  0  0  0  0  0  0  0  0  0
    0.6628  -18.2010   24.4340 H   0  0  0  0  0  0  0  0  0  0  0  0
    1.8808  -22.2848   27.4056 H   0  0  0  0  0  0  0  0  0  0  0  0
    0.3121  -24.3281   27.5476 H   0  0  0  0  0  0  0  0  0  0  0  0
   -1.5202  -23.4628   28.6504 H   0  0  0  0  0  0  0  0  0  0  0  0
  1  2  1  0
  2  3  1  0
  3  4  1  0
  4  5  1  0
  3  6  1  0
  6  7  2  0
  6  8  1  0
  8  9  1  0
  9 10  1  0
 10 11  1  0
 11 12  1  0
 12 13  1  0
 13 14  1  0
 14 15  1  0
 15 16  2  0
 15 17  1  0
 17 18  1  0
 17 19  1  0
 17 20  1  0
 20 21  2  0
 21 22  1  0
 22 23  1  0
 23 24  2  0
 13  9  1  0
 24 20  1  0
  1 25  1  0
  1 26  1  0
  1 27  1  0
  2 28  1  0
  2 29  1  0
  3 30  1  0
  4 31  1  0
  4 32  1  0
  5 33  1  0
  5 34  1  0
  5 35  1  0
  8 36  1  0
  9 37  1  0
 10 38  1  0
 10 39  1  0
 11 40  1  0
 11 41  1  0
 12 42  1  0
 12 43  1  0
 13 44  1  0
 14 45  1  0
 18 46  1  0
 18 47  1  0
 18 48  1  0
 19 49  1  0
 19 50  1  0
 19 51  1  0
 21 52  1  0
 22 53  1  0
 23 54  1  0
M  END
>  <Energy>  (110) 
818.50820731341446

>  <compound_id>  (110) 
73150

>  <target_id>  (110) 
1

>  <reference_id>  (110) 
35

>  <inspiration_ids>  (110) 
[27, 35]

>  <energy_score>  (110) 
745.7728819942181

>  <distance_score>  (110) 
13.447466117627108

>  <path>  (110) 
/opt/xchem-fragalysis-2/maxwin/BulkDock/SCRATCH/511022/C73150-P35/C73150-P35.minimised.mol

>  <scratch_subdir>  (110) 
/opt/xchem-fragalysis-2/maxwin/BulkDock/SCRATCH/511022/C73150-P35

>  <fragmenstein_runtime>  (110) 
59.27540826797485

>  <fragmenstein_outcome>  (110) 
too moved

>  <fragmenstein_mode>  (110) 
expansion

>  <fragmenstein_error>  (110) 


$$$$
C73149-P27
     RDKit          3D

 54 55  0  0  0  0  0  0  0  0999 V2000
    6.2189   -4.5701   24.0165 C   0  0  0  0  0  0  0  0  0  0  0  0
    6.8240   -5.9212   24.3937 C   0  0  0  0  0  0  0  0  0  0  0  0
    5.9478   -7.2137   24.2539 C   0  0  0  0  0  0  0  0  0  0  0  0
    5.4611   -7.5321   22.8034 C   0  0  0  0  0  0  0  0  0  0  0  0
    5.3279   -6.4249   21.7619 C   0  0  0  0  0  0  0  0  0  0  0  0
    6.7751   -8.4680   24.8202 C   0  0  0  0  0  0  0  0  0  0  0  0
    7.9655   -8.3290   24.9146 O   0  0  0  0  0  0  0  0  0  0  0  0
    5.9320   -9.6428   25.0470 N   0  0  0  0  0  0  0  0  0  0  0  0
    6.2937  -11.0726   25.3708 C   0  0  0  0  0  0  0  0  0  0  0  0
    7.7755  -11.3112   25.0227 C   0  0  0  0  0  0  0  0  0  0  0  0
    8.4739  -11.0651   26.3420 C   0  0  0  0  0  0  0  0  0  0  0  0
    7.5838  -11.8344   27.3110 C   0  0  0  0  0  0  0  0  0  0  0  0
    6.0921  -11.6657   26.8637 C   0  0  0  0  0  0  0  0  0  0  0  0
    5.2188  -13.2698   27.2696 C   0  0  0  0  0  0  0  0  0  0  0  0
    3.6697  -14.3151   27.1469 N   0  0  0  0  0  0  0  0  0  0  0  0
    3.3196  -15.9053   27.7702 C   0  0  0  0  0  0  0  0  0  0  0  0
    4.0496  -16.6759   28.3328 O   0  0  0  0  0  0  0  0  0  0  0  0
    1.6514  -16.5606   27.7629 C   0  0  0  0  0  0  0  0  0  0  0  0
    0.2865  -17.7487   27.7356 C   0  0  0  0  0  0  0  0  0  0  0  0
   -0.2781  -19.0703   28.9903 C   0  0  0  0  0  0  0  0  0  0  0  0
    0.0160  -19.7479   30.0596 C   0  0  0  0  0  0  0  0  0  0  0  0
   -0.9340  -20.8394   29.8626 N   0  0  0  0  0  0  0  0  0  0  0  0
   -0.9241  -21.3619   28.6954 C   0  0  0  0  0  0  0  0  0  0  0  0
   -1.0097  -20.2927   28.0283 N   0  0  0  0  0  0  0  0  0  0  0  0
    5.1487   -4.5434   24.2428 H   0  0  0  0  0  0  0  0  0  0  0  0
    6.6950   -3.7739   24.5986 H   0  0  0  0  0  0  0  0  0  0  0  0
    6.3707   -4.3188   22.9658 H   0  0  0  0  0  0  0  0  0  0  0  0
    7.7572   -6.0456   23.8578 H   0  0  0  0  0  0  0  0  0  0  0  0
    7.1098   -5.8536   25.4529 H   0  0  0  0  0  0  0  0  0  0  0  0
    5.0714   -7.0896   24.9033 H   0  0  0  0  0  0  0  0  0  0  0  0
    4.4653   -7.9871   22.9065 H   0  0  0  0  0  0  0  0  0  0  0  0
    6.0605   -8.3379   22.3749 H   0  0  0  0  0  0  0  0  0  0  0  0
    6.2662   -5.9134   21.5702 H   0  0  0  0  0  0  0  0  0  0  0  0
    4.5757   -5.6929   22.0704 H   0  0  0  0  0  0  0  0  0  0  0  0
    4.9894   -6.8531   20.8121 H   0  0  0  0  0  0  0  0  0  0  0  0
    4.9782   -9.4195   24.7923 H   0  0  0  0  0  0  0  0  0  0  0  0
    5.6679  -11.6084   24.6760 H   0  0  0  0  0  0  0  0  0  0  0  0
    7.9297  -12.3546   24.7352 H   0  0  0  0  0  0  0  0  0  0  0  0
    8.1608  -10.6978   24.2049 H   0  0  0  0  0  0  0  0  0  0  0  0
    9.5010  -11.4416   26.3438 H   0  0  0  0  0  0  0  0  0  0  0  0
    8.4965  -10.0078   26.6176 H   0  0  0  0  0  0  0  0  0  0  0  0
    7.8731  -12.8872   27.2391 H   0  0  0  0  0  0  0  0  0  0  0  0
    7.7313  -11.5078   28.3449 H   0  0  0  0  0  0  0  0  0  0  0  0
    5.6247  -10.8889   27.4861 H   0  0  0  0  0  0  0  0  0  0  0  0
    5.2298  -13.3371   26.1735 H   0  0  0  0  0  0  0  0  0  0  0  0
    4.9175  -12.7982   28.1946 H   0  0  0  0  0  0  0  0  0  0  0  0
    2.8201  -13.8851   26.7999 H   0  0  0  0  0  0  0  0  0  0  0  0
    2.1700  -17.3636   27.2207 H   0  0  0  0  0  0  0  0  0  0  0  0
    1.4564  -16.5067   28.8282 H   0  0  0  0  0  0  0  0  0  0  0  0
   -0.7247  -17.3337   27.5319 H   0  0  0  0  0  0  0  0  0  0  0  0
    0.2240  -18.2432   26.7621 H   0  0  0  0  0  0  0  0  0  0  0  0
    0.6860  -19.5372   30.8510 H   0  0  0  0  0  0  0  0  0  0  0  0
   -1.6971  -21.0870   30.4818 H   0  0  0  0  0  0  0  0  0  0  0  0
   -1.1015  -22.3759   28.4401 H   0  0  0  0  0  0  0  0  0  0  0  0
  1  2  1  0
  2  3  1  0
  3  4  1  0
  4  5  1  0
  3  6  1  0
  6  7  2  0
  6  8  1  0
  8  9  1  0
  9 10  1  0
 10 11  1  0
 11 12  1  0
 12 13  1  0
 13 14  1  0
 14 15  1  0
 15 16  1  0
 16 17  2  0
 16 18  1  0
 18 19  1  0
 19 20  1  0
 20 21  2  0
 21 22  1  0
 22 23  1  0
 23 24  2  0
 13  9  1  0
 24 20  1  0
  1 25  1  0
  1 26  1  0
  1 27  1  0
  2 28  1  0
  2 29  1  0
  3 30  1  0
  4 31  1  0
  4 32  1  0
  5 33  1  0
  5 34  1  0
  5 35  1  0
  8 36  1  0
  9 37  1  0
 10 38  1  0
 10 39  1  0
 11 40  1  0
 11 41  1  0
 12 42  1  0
 12 43  1  0
 13 44  1  0
 14 45  1  0
 14 46  1  0
 15 47  1  0
 18 48  1  0
 18 49  1  0
 19 50  1  0
 19 51  1  0
 21 52  1  0
 22 53  1  0
 23 54  1  0
M  END
>  <Energy>  (111) 
440.40503641959475

>  <compound_id>  (111) 
73149

>  <target_id>  (111) 
1

>  <reference_id>  (111) 
27

>  <inspiration_ids>  (111) 
[27, 35]

>  <energy_score>  (111) 
418.1216876284875

>  <distance_score>  (111) 
12.166080334440698

>  <path>  (111) 
/opt/xchem-fragalysis-2/maxwin/BulkDock/SCRATCH/511022/C73149-P27/C73149-P27.minimised.mol

>  <scratch_subdir>  (111) 
/opt/xchem-fragalysis-2/maxwin/BulkDock/SCRATCH/511022/C73149-P27

>  <fragmenstein_runtime>  (111) 
64.95154619216919

>  <fragmenstein_outcome>  (111) 
too moved

>  <fragmenstein_mode>  (111) 
expansion

>  <fragmenstein_error>  (111) 


$$$$
C73149-P35
     RDKit          3D

 54 55  0  0  0  0  0  0  0  0999 V2000
   13.6903   -3.6116   23.6105 C   0  0  0  0  0  0  0  0  0  0  0  0
   14.0555   -5.0686   23.9213 C   0  0  0  0  0  0  0  0  0  0  0  0
   13.0710   -6.1429   23.3742 C   0  0  0  0  0  0  0  0  0  0  0  0
   13.3410   -6.3888   21.8584 C   0  0  0  0  0  0  0  0  0  0  0  0
   13.2127   -5.1659   20.9413 C   0  0  0  0  0  0  0  0  0  0  0  0
   13.1419   -7.5129   24.1881 C   0  0  0  0  0  0  0  0  0  0  0  0
   14.1841   -7.7351   24.7428 O   0  0  0  0  0  0  0  0  0  0  0  0
   11.9254   -8.3394   24.0647 N   0  0  0  0  0  0  0  0  0  0  0  0
   11.6506   -9.7320   24.5011 C   0  0  0  0  0  0  0  0  0  0  0  0
   12.5473  -10.5973   23.5813 C   0  0  0  0  0  0  0  0  0  0  0  0
   11.6803  -10.8021   22.3442 C   0  0  0  0  0  0  0  0  0  0  0  0
   10.2512  -10.9639   22.8762 C   0  0  0  0  0  0  0  0  0  0  0  0
   10.2898  -10.5632   24.3626 C   0  0  0  0  0  0  0  0  0  0  0  0
    8.9005  -10.1960   25.0091 C   0  0  0  0  0  0  0  0  0  0  0  0
    7.9877  -11.3265   25.4485 N   0  0  0  0  0  0  0  0  0  0  0  0
    6.5213  -11.5321   25.2481 C   0  0  0  0  0  0  0  0  0  0  0  0
    5.7238  -10.8912   24.6210 O   0  0  0  0  0  0  0  0  0  0  0  0
    5.9685  -12.8158   26.1613 C   0  0  0  0  0  0  0  0  0  0  0  0
    4.5670  -14.0482   25.8118 C   0  0  0  0  0  0  0  0  0  0  0  0
    3.8060  -15.0115   27.1389 C   0  0  0  0  0  0  0  0  0  0  0  0
    3.6059  -16.3816   26.9437 C   0  0  0  0  0  0  0  0  0  0  0  0
    2.7412  -16.9201   27.7275 N   0  0  0  0  0  0  0  0  0  0  0  0
    1.8389  -16.0164   27.9491 C   0  0  0  0  0  0  0  0  0  0  0  0
    2.4664  -14.8488   27.7439 N   0  0  0  0  0  0  0  0  0  0  0  0
   12.6219   -3.4318   23.7623 H   0  0  0  0  0  0  0  0  0  0  0  0
   14.2385   -2.9486   24.2891 H   0  0  0  0  0  0  0  0  0  0  0  0
   13.9651   -3.3105   22.6003 H   0  0  0  0  0  0  0  0  0  0  0  0
   15.0771   -5.2735   23.5792 H   0  0  0  0  0  0  0  0  0  0  0  0
   14.0809   -5.1600   25.0153 H   0  0  0  0  0  0  0  0  0  0  0  0
   12.0783   -5.7414   23.5671 H   0  0  0  0  0  0  0  0  0  0  0  0
   12.6686   -7.1793   21.5105 H   0  0  0  0  0  0  0  0  0  0  0  0
   14.3481   -6.8092   21.7378 H   0  0  0  0  0  0  0  0  0  0  0  0
   14.1480   -4.5990   20.9307 H   0  0  0  0  0  0  0  0  0  0  0  0
   12.3990   -4.5076   21.2519 H   0  0  0  0  0  0  0  0  0  0  0  0
   13.0217   -5.4519   19.9074 H   0  0  0  0  0  0  0  0  0  0  0  0
   11.2119   -7.8068   23.6004 H   0  0  0  0  0  0  0  0  0  0  0  0
   12.0150   -9.7959   25.5327 H   0  0  0  0  0  0  0  0  0  0  0  0
   13.5113  -10.1448   23.3289 H   0  0  0  0  0  0  0  0  0  0  0  0
   12.7520  -11.5651   24.0565 H   0  0  0  0  0  0  0  0  0  0  0  0
   12.0000  -11.6697   21.7594 H   0  0  0  0  0  0  0  0  0  0  0  0
   11.7329   -9.9226   21.6930 H   0  0  0  0  0  0  0  0  0  0  0  0
    9.9245  -12.0064   22.7813 H   0  0  0  0  0  0  0  0  0  0  0  0
    9.5566  -10.3650   22.2881 H   0  0  0  0  0  0  0  0  0  0  0  0
   10.5375  -11.5000   24.8923 H   0  0  0  0  0  0  0  0  0  0  0  0
    8.3017   -9.5710   24.3473 H   0  0  0  0  0  0  0  0  0  0  0  0
    9.0906   -9.6256   25.9246 H   0  0  0  0  0  0  0  0  0  0  0  0
    8.3338  -12.0146   26.1073 H   0  0  0  0  0  0  0  0  0  0  0  0
    6.9069  -13.3534   26.3265 H   0  0  0  0  0  0  0  0  0  0  0  0
    5.7519  -12.3785   27.1475 H   0  0  0  0  0  0  0  0  0  0  0  0
    5.0150  -14.8398   25.2113 H   0  0  0  0  0  0  0  0  0  0  0  0
    3.8266  -13.7692   25.0578 H   0  0  0  0  0  0  0  0  0  0  0  0
    3.5536  -16.9561   26.0240 H   0  0  0  0  0  0  0  0  0  0  0  0
    3.0695  -17.5087   28.4628 H   0  0  0  0  0  0  0  0  0  0  0  0
    1.0015  -16.2970   28.5493 H   0  0  0  0  0  0  0  0  0  0  0  0
  1  2  1  0
  2  3  1  0
  3  4  1  0
  4  5  1  0
  3  6  1  0
  6  7  2  0
  6  8  1  0
  8  9  1  0
  9 10  1  0
 10 11  1  0
 11 12  1  0
 12 13  1  0
 13 14  1  0
 14 15  1  0
 15 16  1  0
 16 17  2  0
 16 18  1  0
 18 19  1  0
 19 20  1  0
 20 21  2  0
 21 22  1  0
 22 23  1  0
 23 24  2  0
 13  9  1  0
 24 20  1  0
  1 25  1  0
  1 26  1  0
  1 27  1  0
  2 28  1  0
  2 29  1  0
  3 30  1  0
  4 31  1  0
  4 32  1  0
  5 33  1  0
  5 34  1  0
  5 35  1  0
  8 36  1  0
  9 37  1  0
 10 38  1  0
 10 39  1  0
 11 40  1  0
 11 41  1  0
 12 42  1  0
 12 43  1  0
 13 44  1  0
 14 45  1  0
 14 46  1  0
 15 47  1  0
 18 48  1  0
 18 49  1  0
 19 50  1  0
 19 51  1  0
 21 52  1  0
 22 53  1  0
 23 54  1  0
M  END
>  <Energy>  (112) 
164.42350902504441

>  <compound_id>  (112) 
73149

>  <target_id>  (112) 
1

>  <reference_id>  (112) 
35

>  <inspiration_ids>  (112) 
[27, 35]

>  <energy_score>  (112) 
142.1401602339581

>  <distance_score>  (112) 
11.960273527156895

>  <path>  (112) 
/opt/xchem-fragalysis-2/maxwin/BulkDock/SCRATCH/511022/C73149-P35/C73149-P35.minimised.mol

>  <scratch_subdir>  (112) 
/opt/xchem-fragalysis-2/maxwin/BulkDock/SCRATCH/511022/C73149-P35

>  <fragmenstein_runtime>  (112) 
67.510897397995

>  <fragmenstein_outcome>  (112) 
too moved

>  <fragmenstein_mode>  (112) 
expansion

>  <fragmenstein_error>  (112) 


$$$$
C76309-P27
     RDKit          3D

 52 54  0  0  0  0  0  0  0  0999 V2000
   13.3265   -5.2389   25.2563 C   0  0  0  0  0  0  0  0  0  0  0  0
   12.0433   -5.9166   24.7871 C   0  0  0  0  0  0  0  0  0  0  0  0
   12.1334   -7.4560   24.5655 C   0  0  0  0  0  0  0  0  0  0  0  0
   12.6756   -7.8108   23.1183 C   0  0  0  0  0  0  0  0  0  0  0  0
   13.6400   -6.8628   22.4079 C   0  0  0  0  0  0  0  0  0  0  0  0
   10.7592   -8.3028   24.8327 C   0  0  0  0  0  0  0  0  0  0  0  0
   10.3564   -8.9559   23.9133 O   0  0  0  0  0  0  0  0  0  0  0  0
   10.2389   -8.1389   26.1629 N   0  0  0  0  0  0  0  0  0  0  0  0
    8.9985   -8.6406   26.7887 C   0  0  0  0  0  0  0  0  0  0  0  0
    7.7581   -8.8153   26.0656 C   0  0  0  0  0  0  0  0  0  0  0  0
    8.0485  -10.3759   26.9124 C   0  0  0  0  0  0  0  0  0  0  0  0
    7.0340  -11.1679   27.3923 N   0  0  0  0  0  0  0  0  0  0  0  0
    6.3775  -12.3910   26.8032 C   0  0  0  0  0  0  0  0  0  0  0  0
    6.6617  -13.0429   25.8433 O   0  0  0  0  0  0  0  0  0  0  0  0
    5.0497  -12.9473   27.7654 C   0  0  0  0  0  0  0  0  0  0  0  0
    3.7549  -14.2016   27.1176 C   0  0  0  0  0  0  0  0  0  0  0  0
    1.9688  -14.1885   27.5601 C   0  0  0  0  0  0  0  0  0  0  0  0
    0.8537  -13.4589   27.1652 C   0  0  0  0  0  0  0  0  0  0  0  0
   -0.2662  -14.1224   27.6354 N   0  0  0  0  0  0  0  0  0  0  0  0
    0.1390  -15.2374   28.2990 C   0  0  0  0  0  0  0  0  0  0  0  0
    1.4485  -15.3257   28.2823 N   0  0  0  0  0  0  0  0  0  0  0  0
    8.7740  -10.3018   26.9024 C   0  0  0  0  0  0  0  0  0  0  0  0
    9.9833  -11.3434   26.3292 C   0  0  0  0  0  0  0  0  0  0  0  0
   10.0706  -10.9170   27.7576 C   0  0  0  0  0  0  0  0  0  0  0  0
   13.6703   -5.6805   26.1972 H   0  0  0  0  0  0  0  0  0  0  0  0
   14.1366   -5.3130   24.5307 H   0  0  0  0  0  0  0  0  0  0  0  0
   13.1417   -4.1743   25.4352 H   0  0  0  0  0  0  0  0  0  0  0  0
   11.7759   -5.3967   23.8722 H   0  0  0  0  0  0  0  0  0  0  0  0
   11.2567   -5.6905   25.5145 H   0  0  0  0  0  0  0  0  0  0  0  0
   12.8510   -7.8632   25.2914 H   0  0  0  0  0  0  0  0  0  0  0  0
   11.8433   -7.9864   22.4310 H   0  0  0  0  0  0  0  0  0  0  0  0
   13.1678   -8.7900   23.1992 H   0  0  0  0  0  0  0  0  0  0  0  0
   13.2155   -5.8703   22.2428 H   0  0  0  0  0  0  0  0  0  0  0  0
   13.9021   -7.2739   21.4282 H   0  0  0  0  0  0  0  0  0  0  0  0
   14.5724   -6.7692   22.9713 H   0  0  0  0  0  0  0  0  0  0  0  0
   10.7928   -7.4432   26.6504 H   0  0  0  0  0  0  0  0  0  0  0  0
    8.9031   -8.1813   27.7814 H   0  0  0  0  0  0  0  0  0  0  0  0
    7.8273   -8.9321   24.9822 H   0  0  0  0  0  0  0  0  0  0  0  0
    6.8516   -8.3323   26.4368 H   0  0  0  0  0  0  0  0  0  0  0  0
    7.4429   -9.7355   27.8680 H   0  0  0  0  0  0  0  0  0  0  0  0
    7.4991  -10.7533   25.8188 H   0  0  0  0  0  0  0  0  0  0  0  0
    5.2580  -13.3412   28.7252 H   0  0  0  0  0  0  0  0  0  0  0  0
    4.7792  -12.0413   28.3168 H   0  0  0  0  0  0  0  0  0  0  0  0
    3.9668  -15.1852   27.5339 H   0  0  0  0  0  0  0  0  0  0  0  0
    3.9069  -14.3187   26.0382 H   0  0  0  0  0  0  0  0  0  0  0  0
    0.7278  -12.5852   26.5451 H   0  0  0  0  0  0  0  0  0  0  0  0
   -1.2245  -13.8450   27.4771 H   0  0  0  0  0  0  0  0  0  0  0  0
   -0.5459  -15.9398   28.7537 H   0  0  0  0  0  0  0  0  0  0  0  0
    9.6757  -12.3614   26.1086 H   0  0  0  0  0  0  0  0  0  0  0  0
   10.6998  -10.9438   25.6227 H   0  0  0  0  0  0  0  0  0  0  0  0
   10.8712  -10.2338   28.0258 H   0  0  0  0  0  0  0  0  0  0  0  0
    9.7962  -11.5814   28.5674 H   0  0  0  0  0  0  0  0  0  0  0  0
  1  2  1  0
  2  3  1  0
  3  4  1  0
  4  5  1  0
  3  6  1  0
  6  7  2  0
  6  8  1  0
  8  9  1  0
  9 10  1  0
 10 11  1  0
 11 12  1  0
 12 13  1  0
 13 14  2  0
 13 15  1  0
 15 16  1  0
 16 17  1  0
 17 18  2  0
 18 19  1  0
 19 20  1  0
 20 21  2  0
 12 22  1  0
 22 23  1  0
 23 24  1  0
 22  9  1  0
 21 17  1  0
 24 22  1  0
  1 25  1  0
  1 26  1  0
  1 27  1  0
  2 28  1  0
  2 29  1  0
  3 30  1  0
  4 31  1  0
  4 32  1  0
  5 33  1  0
  5 34  1  0
  5 35  1  0
  8 36  1  0
  9 37  1  0
 10 38  1  0
 10 39  1  0
 11 40  1  0
 11 41  1  0
 15 42  1  0
 15 43  1  0
 16 44  1  0
 16 45  1  0
 18 46  1  0
 19 47  1  0
 20 48  1  0
 23 49  1  0
 23 50  1  0
 24 51  1  0
 24 52  1  0
M  END
>  <Energy>  (113) 
889.1739446355266

>  <compound_id>  (113) 
76309

>  <target_id>  (113) 
1

>  <reference_id>  (113) 
27

>  <inspiration_ids>  (113) 
[27, 35]

>  <energy_score>  (113) 
861.7319575039252

>  <distance_score>  (113) 
12.773093142924642

>  <path>  (113) 
/opt/xchem-fragalysis-2/maxwin/BulkDock/SCRATCH/511022/C76309-P27/C76309-P27.minimised.mol

>  <scratch_subdir>  (113) 
/opt/xchem-fragalysis-2/maxwin/BulkDock/SCRATCH/511022/C76309-P27

>  <fragmenstein_runtime>  (113) 
27.338524341583252

>  <fragmenstein_outcome>  (113) 
too moved

>  <fragmenstein_mode>  (113) 
expansion

>  <fragmenstein_error>  (113) 


$$$$
C76309-P35
     RDKit          3D

 52 54  0  0  0  0  0  0  0  0999 V2000
   13.7333   -3.7048   22.7786 C   0  0  0  0  0  0  0  0  0  0  0  0
   13.1321   -4.8536   23.5814 C   0  0  0  0  0  0  0  0  0  0  0  0
   13.5063   -6.3112   23.1916 C   0  0  0  0  0  0  0  0  0  0  0  0
   13.6713   -6.5144   21.6568 C   0  0  0  0  0  0  0  0  0  0  0  0
   14.9289   -5.9314   21.0134 C   0  0  0  0  0  0  0  0  0  0  0  0
   12.4475   -7.3689   23.7977 C   0  0  0  0  0  0  0  0  0  0  0  0
   11.7716   -8.0138   23.0469 O   0  0  0  0  0  0  0  0  0  0  0  0
   12.4633   -7.3170   25.2378 N   0  0  0  0  0  0  0  0  0  0  0  0
   11.6061   -7.9525   26.2275 C   0  0  0  0  0  0  0  0  0  0  0  0
   10.2190   -7.5374   26.2758 C   0  0  0  0  0  0  0  0  0  0  0  0
   10.2027   -9.2603   26.3900 C   0  0  0  0  0  0  0  0  0  0  0  0
    9.2283   -9.9343   27.0668 N   0  0  0  0  0  0  0  0  0  0  0  0
    8.3721  -11.2767   26.7920 C   0  0  0  0  0  0  0  0  0  0  0  0
    8.4439  -12.0931   25.9669 O   0  0  0  0  0  0  0  0  0  0  0  0
    7.3246  -11.4030   27.9917 C   0  0  0  0  0  0  0  0  0  0  0  0
    5.9369  -11.8756   27.4553 C   0  0  0  0  0  0  0  0  0  0  0  0
    4.6183  -12.8284   28.0346 C   0  0  0  0  0  0  0  0  0  0  0  0
    3.8156  -14.0292   27.2227 C   0  0  0  0  0  0  0  0  0  0  0  0
    2.1335  -13.7083   27.4127 N   0  0  0  0  0  0  0  0  0  0  0  0
    1.8985  -12.4697   28.1773 C   0  0  0  0  0  0  0  0  0  0  0  0
    3.1255  -11.9094   28.5609 N   0  0  0  0  0  0  0  0  0  0  0  0
   10.8749   -9.4512   26.0464 C   0  0  0  0  0  0  0  0  0  0  0  0
   11.3381  -10.4852   24.8257 C   0  0  0  0  0  0  0  0  0  0  0  0
   12.0108  -10.6625   26.1407 C   0  0  0  0  0  0  0  0  0  0  0  0
   13.3262   -3.6711   21.7652 H   0  0  0  0  0  0  0  0  0  0  0  0
   13.4900   -2.7548   23.2652 H   0  0  0  0  0  0  0  0  0  0  0  0
   14.8239   -3.7752   22.7438 H   0  0  0  0  0  0  0  0  0  0  0  0
   12.0461   -4.7387   23.5787 H   0  0  0  0  0  0  0  0  0  0  0  0
   13.4233   -4.7056   24.6296 H   0  0  0  0  0  0  0  0  0  0  0  0
   14.4709   -6.5585   23.6562 H   0  0  0  0  0  0  0  0  0  0  0  0
   13.7055   -7.5970   21.4823 H   0  0  0  0  0  0  0  0  0  0  0  0
   12.8001   -6.1351   21.1173 H   0  0  0  0  0  0  0  0  0  0  0  0
   15.7798   -5.9694   21.7003 H   0  0  0  0  0  0  0  0  0  0  0  0
   14.7867   -4.9014   20.6813 H   0  0  0  0  0  0  0  0  0  0  0  0
   15.2046   -6.5063   20.1237 H   0  0  0  0  0  0  0  0  0  0  0  0
   13.2254   -6.7188   25.5386 H   0  0  0  0  0  0  0  0  0  0  0  0
   12.1233   -7.9091   27.1964 H   0  0  0  0  0  0  0  0  0  0  0  0
    9.7727   -7.1809   25.3454 H   0  0  0  0  0  0  0  0  0  0  0  0
    9.8545   -7.0422   27.1789 H   0  0  0  0  0  0  0  0  0  0  0  0
   10.2975   -8.9673   27.6327 H   0  0  0  0  0  0  0  0  0  0  0  0
    9.1964   -9.0972   25.6540 H   0  0  0  0  0  0  0  0  0  0  0  0
    7.7995  -12.0357   28.7401 H   0  0  0  0  0  0  0  0  0  0  0  0
    7.2109  -10.4165   28.4583 H   0  0  0  0  0  0  0  0  0  0  0  0
    6.0913  -12.2804   26.4479 H   0  0  0  0  0  0  0  0  0  0  0  0
    5.4580  -10.8922   27.3935 H   0  0  0  0  0  0  0  0  0  0  0  0
    4.0591  -14.5454   26.3068 H   0  0  0  0  0  0  0  0  0  0  0  0
    1.4126  -14.1322   26.8568 H   0  0  0  0  0  0  0  0  0  0  0  0
    0.9042  -12.0797   28.3465 H   0  0  0  0  0  0  0  0  0  0  0  0
   11.9498  -10.1176   24.0140 H   0  0  0  0  0  0  0  0  0  0  0  0
   10.6189  -11.2391   24.5165 H   0  0  0  0  0  0  0  0  0  0  0  0
   13.0517  -10.3657   26.2210 H   0  0  0  0  0  0  0  0  0  0  0  0
   11.7546  -11.5389   26.7280 H   0  0  0  0  0  0  0  0  0  0  0  0
  1  2  1  0
  2  3  1  0
  3  4  1  0
  4  5  1  0
  3  6  1  0
  6  7  2  0
  6  8  1  0
  8  9  1  0
  9 10  1  0
 10 11  1  0
 11 12  1  0
 12 13  1  0
 13 14  2  0
 13 15  1  0
 15 16  1  0
 16 17  1  0
 17 18  2  0
 18 19  1  0
 19 20  1  0
 20 21  2  0
 12 22  1  0
 22 23  1  0
 23 24  1  0
 22  9  1  0
 21 17  1  0
 24 22  1  0
  1 25  1  0
  1 26  1  0
  1 27  1  0
  2 28  1  0
  2 29  1  0
  3 30  1  0
  4 31  1  0
  4 32  1  0
  5 33  1  0
  5 34  1  0
  5 35  1  0
  8 36  1  0
  9 37  1  0
 10 38  1  0
 10 39  1  0
 11 40  1  0
 11 41  1  0
 15 42  1  0
 15 43  1  0
 16 44  1  0
 16 45  1  0
 18 46  1  0
 19 47  1  0
 20 48  1  0
 23 49  1  0
 23 50  1  0
 24 51  1  0
 24 52  1  0
M  END
>  <Energy>  (114) 
897.48032023727978

>  <compound_id>  (114) 
76309

>  <target_id>  (114) 
1

>  <reference_id>  (114) 
35

>  <inspiration_ids>  (114) 
[27, 35]

>  <energy_score>  (114) 
870.0383331056876

>  <distance_score>  (114) 
12.886037178763981

>  <path>  (114) 
/opt/xchem-fragalysis-2/maxwin/BulkDock/SCRATCH/511022/C76309-P35/C76309-P35.minimised.mol

>  <scratch_subdir>  (114) 
/opt/xchem-fragalysis-2/maxwin/BulkDock/SCRATCH/511022/C76309-P35

>  <fragmenstein_runtime>  (114) 
24.88621473312378

>  <fragmenstein_outcome>  (114) 
too moved

>  <fragmenstein_mode>  (114) 
expansion

>  <fragmenstein_error>  (114) 


$$$$
C23879-P27
     RDKit          3D

 51 52  0  0  0  0  0  0  0  0999 V2000
   13.2715   -4.2728   17.2258 C   0  0  0  0  0  0  0  0  0  0  0  0
   13.0500   -5.9424   16.8700 C   0  0  0  0  0  0  0  0  0  0  0  0
   11.9718   -7.4738   16.0968 C   0  0  0  0  0  0  0  0  0  0  0  0
   11.3518   -5.5641   16.0609 C   0  0  0  0  0  0  0  0  0  0  0  0
   10.8167   -4.2679   14.9674 C   0  0  0  0  0  0  0  0  0  0  0  0
   11.1656   -9.5791   16.4015 C   0  0  0  0  0  0  0  0  0  0  0  0
   11.9698  -10.4930   16.3508 O   0  0  0  0  0  0  0  0  0  0  0  0
    9.3274   -9.9813   16.9272 N   0  0  0  0  0  0  0  0  0  0  0  0
    8.4482  -11.6325   17.5887 C   0  0  0  0  0  0  0  0  0  0  0  0
    6.5441  -12.1462   17.7843 C   0  0  0  0  0  0  0  0  0  0  0  0
    5.2811  -13.0986   19.0217 C   0  0  0  0  0  0  0  0  0  0  0  0
    4.5760  -13.0446   20.9117 C   0  0  0  0  0  0  0  0  0  0  0  0
    3.3047  -14.4526   21.8878 N   0  0  0  0  0  0  0  0  0  0  0  0
    3.6300  -15.8661   23.3263 C   0  0  0  0  0  0  0  0  0  0  0  0
    4.7416  -15.7957   23.7675 O   0  0  0  0  0  0  0  0  0  0  0  0
    2.6375  -17.6823   24.1821 C   0  0  0  0  0  0  0  0  0  0  0  0
    0.8406  -18.9128   24.2962 C   0  0  0  0  0  0  0  0  0  0  0  0
   -0.5317  -19.2611   23.1140 C   0  0  0  0  0  0  0  0  0  0  0  0
   -0.5341  -18.9391   21.7560 N   0  0  0  0  0  0  0  0  0  0  0  0
    0.3568  -19.8386   21.6374 C   0  0  0  0  0  0  0  0  0  0  0  0
    0.4493  -20.1622   22.9815 N   0  0  0  0  0  0  0  0  0  0  0  0
    6.4223  -12.2412   20.6082 C   0  0  0  0  0  0  0  0  0  0  0  0
    7.7095  -11.3694   19.3841 C   0  0  0  0  0  0  0  0  0  0  0  0
   14.1860   -4.1958   17.8308 H   0  0  0  0  0  0  0  0  0  0  0  0
   12.4573   -3.8519   17.8100 H   0  0  0  0  0  0  0  0  0  0  0  0
   13.4672   -3.6602   16.3357 H   0  0  0  0  0  0  0  0  0  0  0  0
   13.8252   -5.7992   16.0965 H   0  0  0  0  0  0  0  0  0  0  0  0
   13.1712   -6.0025   17.9752 H   0  0  0  0  0  0  0  0  0  0  0  0
   12.7882   -7.6946   15.4585 H   0  0  0  0  0  0  0  0  0  0  0  0
   11.0643   -5.1503   17.0428 H   0  0  0  0  0  0  0  0  0  0  0  0
   12.1781   -4.9052   15.7950 H   0  0  0  0  0  0  0  0  0  0  0  0
   11.0804   -4.4048   13.9166 H   0  0  0  0  0  0  0  0  0  0  0  0
    9.7725   -3.9853   15.0525 H   0  0  0  0  0  0  0  0  0  0  0  0
   11.3250   -3.3379   15.2788 H   0  0  0  0  0  0  0  0  0  0  0  0
    8.7930   -9.1732   16.8379 H   0  0  0  0  0  0  0  0  0  0  0  0
    9.1707  -12.4454   17.6919 H   0  0  0  0  0  0  0  0  0  0  0  0
    6.4186  -12.7573   16.8779 H   0  0  0  0  0  0  0  0  0  0  0  0
    6.0076  -11.2023   17.5922 H   0  0  0  0  0  0  0  0  0  0  0  0
    4.3444  -13.0482   18.4477 H   0  0  0  0  0  0  0  0  0  0  0  0
    5.6718  -14.1209   18.9171 H   0  0  0  0  0  0  0  0  0  0  0  0
    3.8811  -12.1915   20.8471 H   0  0  0  0  0  0  0  0  0  0  0  0
    2.3787  -14.4916   21.6209 H   0  0  0  0  0  0  0  0  0  0  0  0
    3.1797  -18.5308   23.7363 H   0  0  0  0  0  0  0  0  0  0  0  0
    3.0045  -17.8744   25.2251 H   0  0  0  0  0  0  0  0  0  0  0  0
   -1.5866  -19.3750   23.4775 H   0  0  0  0  0  0  0  0  0  0  0  0
    0.7108  -20.3363   20.7506 H   0  0  0  0  0  0  0  0  0  0  0  0
    0.3801  -21.1069   23.3315 H   0  0  0  0  0  0  0  0  0  0  0  0
    6.4869  -11.4441   21.3630 H   0  0  0  0  0  0  0  0  0  0  0  0
    7.1194  -13.0349   20.8077 H   0  0  0  0  0  0  0  0  0  0  0  0
    8.6215  -11.3330   19.9976 H   0  0  0  0  0  0  0  0  0  0  0  0
    7.3254  -10.3368   19.3417 H   0  0  0  0  0  0  0  0  0  0  0  0
  1  2  1  0
  2  3  1  0
  3  4  1  0
  4  5  1  0
  3  6  1  0
  6  7  2  0
  6  8  1  0
  8  9  1  0
  9 10  1  0
 10 11  1  0
 11 12  1  0
 12 13  1  0
 13 14  1  0
 14 15  2  0
 14 16  1  0
 16 17  1  0
 17 18  2  0
 18 19  1  0
 19 20  2  0
 20 21  1  0
 12 22  1  0
 22 23  1  0
 23  9  1  0
 21 17  1  0
  1 24  1  0
  1 25  1  0
  1 26  1  0
  2 27  1  0
  2 28  1  0
  3 29  1  0
  4 30  1  0
  4 31  1  0
  5 32  1  0
  5 33  1  0
  5 34  1  0
  8 35  1  0
  9 36  1  0
 10 37  1  0
 10 38  1  0
 11 39  1  0
 11 40  1  0
 12 41  1  0
 13 42  1  0
 16 43  1  0
 16 44  1  0
 18 45  1  0
 20 46  1  0
 21 47  1  0
 22 48  1  0
 22 49  1  0
 23 50  1  0
 23 51  1  0
M  END
>  <Energy>  (115) 
2152.8951789535026

>  <compound_id>  (115) 
23879

>  <target_id>  (115) 
1

>  <reference_id>  (115) 
27

>  <inspiration_ids>  (115) 
[27, 35]

>  <energy_score>  (115) 
2112.5404548519255

>  <distance_score>  (115) 
11.371832929306645

>  <path>  (115) 
/opt/xchem-fragalysis-2/maxwin/BulkDock/SCRATCH/511022/C23879-P27/C23879-P27.minimised.mol

>  <scratch_subdir>  (115) 
/opt/xchem-fragalysis-2/maxwin/BulkDock/SCRATCH/511022/C23879-P27

>  <fragmenstein_runtime>  (115) 
26.320303916931152

>  <fragmenstein_outcome>  (115) 
too moved

>  <fragmenstein_mode>  (115) 
expansion

>  <fragmenstein_error>  (115) 


$$$$
C23879-P35
     RDKit          3D

 51 52  0  0  0  0  0  0  0  0999 V2000
   13.3457  -12.0999   16.7177 C   0  0  0  0  0  0  0  0  0  0  0  0
   11.9596  -11.5582   16.3917 C   0  0  0  0  0  0  0  0  0  0  0  0
   11.0632  -12.6394   15.7481 C   0  0  0  0  0  0  0  0  0  0  0  0
    9.9379  -11.9873   14.9105 C   0  0  0  0  0  0  0  0  0  0  0  0
    9.2332  -10.8025   15.5478 C   0  0  0  0  0  0  0  0  0  0  0  0
   10.5344  -13.6917   16.8002 C   0  0  0  0  0  0  0  0  0  0  0  0
   10.5575  -13.4310   17.9702 O   0  0  0  0  0  0  0  0  0  0  0  0
   10.1259  -14.8976   16.1094 N   0  0  0  0  0  0  0  0  0  0  0  0
    9.7071  -16.2042   16.6224 C   0  0  0  0  0  0  0  0  0  0  0  0
   10.8916  -17.1087   16.9694 C   0  0  0  0  0  0  0  0  0  0  0  0
   10.4483  -18.5780   17.2318 C   0  0  0  0  0  0  0  0  0  0  0  0
    8.9451  -18.7654   17.5901 C   0  0  0  0  0  0  0  0  0  0  0  0
    8.6224  -20.1185   18.1707 N   0  0  0  0  0  0  0  0  0  0  0  0
    7.7695  -21.2165   17.6577 C   0  0  0  0  0  0  0  0  0  0  0  0
    7.1447  -21.3087   16.6324 O   0  0  0  0  0  0  0  0  0  0  0  0
    7.6671  -22.4529   18.6685 C   0  0  0  0  0  0  0  0  0  0  0  0
    6.2552  -23.0374   19.0327 C   0  0  0  0  0  0  0  0  0  0  0  0
    5.8557  -23.8965   20.0601 C   0  0  0  0  0  0  0  0  0  0  0  0
    4.5123  -24.1839   20.0164 N   0  0  0  0  0  0  0  0  0  0  0  0
    4.0629  -23.5239   18.9795 C   0  0  0  0  0  0  0  0  0  0  0  0
    5.0749  -22.8625   18.3314 N   0  0  0  0  0  0  0  0  0  0  0  0
    8.5442  -17.5641   18.4831 C   0  0  0  0  0  0  0  0  0  0  0  0
    8.7404  -16.1704   17.8157 C   0  0  0  0  0  0  0  0  0  0  0  0
   13.9659  -11.4016   17.2795 H   0  0  0  0  0  0  0  0  0  0  0  0
   13.2761  -13.0116   17.3204 H   0  0  0  0  0  0  0  0  0  0  0  0
   13.8820  -12.3536   15.7970 H   0  0  0  0  0  0  0  0  0  0  0  0
   12.0823  -10.7169   15.7045 H   0  0  0  0  0  0  0  0  0  0  0  0
   11.4799  -11.1931   17.3055 H   0  0  0  0  0  0  0  0  0  0  0  0
   11.6901  -13.2062   15.0442 H   0  0  0  0  0  0  0  0  0  0  0  0
    9.1842  -12.7430   14.6598 H   0  0  0  0  0  0  0  0  0  0  0  0
   10.3642  -11.6523   13.9562 H   0  0  0  0  0  0  0  0  0  0  0  0
    8.8723  -11.0507   16.5502 H   0  0  0  0  0  0  0  0  0  0  0  0
    8.3738  -10.5099   14.9361 H   0  0  0  0  0  0  0  0  0  0  0  0
    9.9014   -9.9468   15.6076 H   0  0  0  0  0  0  0  0  0  0  0  0
   10.3187  -14.7932   15.1193 H   0  0  0  0  0  0  0  0  0  0  0  0
    9.1788  -16.6559   15.7725 H   0  0  0  0  0  0  0  0  0  0  0  0
   11.4029  -16.7209   17.8603 H   0  0  0  0  0  0  0  0  0  0  0  0
   11.6364  -17.1005   16.1642 H   0  0  0  0  0  0  0  0  0  0  0  0
   10.6638  -19.1820   16.3412 H   0  0  0  0  0  0  0  0  0  0  0  0
   11.0762  -18.9925   18.0307 H   0  0  0  0  0  0  0  0  0  0  0  0
    8.3606  -18.7123   16.6635 H   0  0  0  0  0  0  0  0  0  0  0  0
    9.0631  -20.4157   19.0366 H   0  0  0  0  0  0  0  0  0  0  0  0
    8.2349  -23.2667   18.1986 H   0  0  0  0  0  0  0  0  0  0  0  0
    8.1895  -22.2066   19.5953 H   0  0  0  0  0  0  0  0  0  0  0  0
    6.4788  -24.3223   20.8377 H   0  0  0  0  0  0  0  0  0  0  0  0
    3.0390  -23.4977   18.6320 H   0  0  0  0  0  0  0  0  0  0  0  0
    4.9702  -22.3322   17.4759 H   0  0  0  0  0  0  0  0  0  0  0  0
    9.1505  -17.6074   19.3909 H   0  0  0  0  0  0  0  0  0  0  0  0
    7.5101  -17.6548   18.8254 H   0  0  0  0  0  0  0  0  0  0  0  0
    9.0785  -15.4677   18.5851 H   0  0  0  0  0  0  0  0  0  0  0  0
    7.7681  -15.7964   17.4711 H   0  0  0  0  0  0  0  0  0  0  0  0
  1  2  1  0
  2  3  1  0
  3  4  1  0
  4  5  1  0
  3  6  1  0
  6  7  2  0
  6  8  1  0
  8  9  1  0
  9 10  1  0
 10 11  1  0
 11 12  1  0
 12 13  1  0
 13 14  1  0
 14 15  2  0
 14 16  1  0
 16 17  1  0
 17 18  2  0
 18 19  1  0
 19 20  2  0
 20 21  1  0
 12 22  1  0
 22 23  1  0
 23  9  1  0
 21 17  1  0
  1 24  1  0
  1 25  1  0
  1 26  1  0
  2 27  1  0
  2 28  1  0
  3 29  1  0
  4 30  1  0
  4 31  1  0
  5 32  1  0
  5 33  1  0
  5 34  1  0
  8 35  1  0
  9 36  1  0
 10 37  1  0
 10 38  1  0
 11 39  1  0
 11 40  1  0
 12 41  1  0
 13 42  1  0
 16 43  1  0
 16 44  1  0
 18 45  1  0
 20 46  1  0
 21 47  1  0
 22 48  1  0
 22 49  1  0
 23 50  1  0
 23 51  1  0
M  END
>  <Energy>  (116) 
24.19135369145836

>  <compound_id>  (116) 
23879

>  <target_id>  (116) 
1

>  <reference_id>  (116) 
35

>  <inspiration_ids>  (116) 
[27, 35]

>  <energy_score>  (116) 
-16.1633704101464

>  <distance_score>  (116) 
14.949115085543959

>  <path>  (116) 
/opt/xchem-fragalysis-2/maxwin/BulkDock/SCRATCH/511022/C23879-P35/C23879-P35.minimised.mol

>  <scratch_subdir>  (116) 
/opt/xchem-fragalysis-2/maxwin/BulkDock/SCRATCH/511022/C23879-P35

>  <fragmenstein_runtime>  (116) 
38.80637335777283

>  <fragmenstein_outcome>  (116) 
too moved

>  <fragmenstein_mode>  (116) 
expansion

>  <fragmenstein_error>  (116) 


$$$$
C23880-P27
     RDKit          3D

 47 49  0  0  0  0  0  0  0  0999 V2000
   14.7021   -1.6106   20.2354 C   0  0  0  0  0  0  0  0  0  0  0  0
   15.1330   -2.9659   20.7874 C   0  0  0  0  0  0  0  0  0  0  0  0
   14.0560   -4.0901   20.9160 C   0  0  0  0  0  0  0  0  0  0  0  0
   13.7747   -4.7853   19.5620 C   0  0  0  0  0  0  0  0  0  0  0  0
   13.6564   -3.9515   18.2933 C   0  0  0  0  0  0  0  0  0  0  0  0
   14.5677   -5.1847   21.9639 C   0  0  0  0  0  0  0  0  0  0  0  0
   15.7037   -5.0853   22.3345 O   0  0  0  0  0  0  0  0  0  0  0  0
   13.5707   -6.2074   22.2342 N   0  0  0  0  0  0  0  0  0  0  0  0
   13.6733   -7.4870   22.9645 C   0  0  0  0  0  0  0  0  0  0  0  0
   14.4485   -8.4373   22.0373 C   0  0  0  0  0  0  0  0  0  0  0  0
   14.2293   -9.8532   22.4878 C   0  0  0  0  0  0  0  0  0  0  0  0
   12.4334   -9.9437   22.6726 S   0  0  0  0  0  0  0  0  0  0  0  0
   12.3241   -8.2049   23.4514 C   0  0  0  0  0  0  0  0  0  0  0  0
   11.7273   -8.3803   24.9655 C   0  0  0  0  0  0  0  0  0  0  0  0
   10.7612   -9.2242   24.9818 N   0  0  0  0  0  0  0  0  0  0  0  0
   10.0429   -9.8410   26.1171 C   0  0  0  0  0  0  0  0  0  0  0  0
   10.2620   -9.8025   27.2908 O   0  0  0  0  0  0  0  0  0  0  0  0
    8.8667  -10.7104   25.8218 C   0  0  0  0  0  0  0  0  0  0  0  0
    8.2852  -11.3509   24.7392 C   0  0  0  0  0  0  0  0  0  0  0  0
    7.1868  -12.1269   25.1030 N   0  0  0  0  0  0  0  0  0  0  0  0
    7.0701  -11.9746   26.3975 C   0  0  0  0  0  0  0  0  0  0  0  0
    8.0576  -11.1716   26.8762 N   0  0  0  0  0  0  0  0  0  0  0  0
   12.5851   -8.2065   24.9389 C   0  0  0  0  0  0  0  0  0  0  0  0
   15.5568   -0.9250   20.2555 H   0  0  0  0  0  0  0  0  0  0  0  0
   14.3567   -1.6479   19.2043 H   0  0  0  0  0  0  0  0  0  0  0  0
   13.9256   -1.1665   20.8579 H   0  0  0  0  0  0  0  0  0  0  0  0
   15.9765   -3.3401   20.1929 H   0  0  0  0  0  0  0  0  0  0  0  0
   15.5415   -2.7580   21.7852 H   0  0  0  0  0  0  0  0  0  0  0  0
   13.1336   -3.6597   21.3210 H   0  0  0  0  0  0  0  0  0  0  0  0
   14.5622   -5.5295   19.3921 H   0  0  0  0  0  0  0  0  0  0  0  0
   12.8430   -5.3452   19.6743 H   0  0  0  0  0  0  0  0  0  0  0  0
   14.6234   -3.5283   18.0072 H   0  0  0  0  0  0  0  0  0  0  0  0
   13.3257   -4.5806   17.4606 H   0  0  0  0  0  0  0  0  0  0  0  0
   12.9285   -3.1493   18.4021 H   0  0  0  0  0  0  0  0  0  0  0  0
   12.7451   -6.0129   21.6901 H   0  0  0  0  0  0  0  0  0  0  0  0
   14.3470   -7.2724   23.8056 H   0  0  0  0  0  0  0  0  0  0  0  0
   15.5178   -8.1920   22.0416 H   0  0  0  0  0  0  0  0  0  0  0  0
   14.1255   -8.3236   20.9993 H   0  0  0  0  0  0  0  0  0  0  0  0
   14.5807  -10.5786   21.7495 H   0  0  0  0  0  0  0  0  0  0  0  0
   14.7158  -10.0558   23.4464 H   0  0  0  0  0  0  0  0  0  0  0  0
   11.3944   -7.7498   26.0865 H   0  0  0  0  0  0  0  0  0  0  0  0
   10.9234   -7.4548   24.6878 H   0  0  0  0  0  0  0  0  0  0  0  0
    8.6162  -11.3148   23.7089 H   0  0  0  0  0  0  0  0  0  0  0  0
    6.3117  -12.3999   27.0359 H   0  0  0  0  0  0  0  0  0  0  0  0
    8.2188  -10.9190   27.8428 H   0  0  0  0  0  0  0  0  0  0  0  0
   13.4444   -8.9509   25.2910 H   0  0  0  0  0  0  0  0  0  0  0  0
   12.8941   -7.1380   25.4585 H   0  0  0  0  0  0  0  0  0  0  0  0
  1  2  1  0
  2  3  1  0
  3  4  1  0
  4  5  1  0
  3  6  1  0
  6  7  2  0
  6  8  1  0
  8  9  1  0
  9 10  1  0
 10 11  1  0
 11 12  1  0
 12 13  1  0
 13 14  1  0
 14 15  1  0
 15 16  1  0
 16 17  2  0
 16 18  1  0
 18 19  2  0
 19 20  1  0
 20 21  2  0
 21 22  1  0
 15 23  1  0
 13  9  1  0
 22 18  1  0
 23 13  1  0
  1 24  1  0
  1 25  1  0
  1 26  1  0
  2 27  1  0
  2 28  1  0
  3 29  1  0
  4 30  1  0
  4 31  1  0
  5 32  1  0
  5 33  1  0
  5 34  1  0
  8 35  1  0
  9 36  1  0
 10 37  1  0
 10 38  1  0
 11 39  1  0
 11 40  1  0
 14 41  1  0
 14 42  1  0
 19 43  1  0
 21 44  1  0
 22 45  1  0
 23 46  1  0
 23 47  1  0
M  END
>  <Energy>  (117) 
687.43770924762191

>  <compound_id>  (117) 
23880

>  <target_id>  (117) 
1

>  <reference_id>  (117) 
27

>  <inspiration_ids>  (117) 
[27, 35]

>  <energy_score>  (117) 
645.540820536556

>  <distance_score>  (117) 
13.628075283370654

>  <path>  (117) 
/opt/xchem-fragalysis-2/maxwin/BulkDock/SCRATCH/511022/C23880-P27/C23880-P27.minimised.mol

>  <scratch_subdir>  (117) 
/opt/xchem-fragalysis-2/maxwin/BulkDock/SCRATCH/511022/C23880-P27

>  <fragmenstein_runtime>  (117) 
36.50329065322876

>  <fragmenstein_outcome>  (117) 
too moved

>  <fragmenstein_mode>  (117) 
expansion

>  <fragmenstein_error>  (117) 


$$$$
C23880-P35
     RDKit          3D

 47 49  0  0  0  0  0  0  0  0999 V2000
   13.6653   -3.1809   18.1818 C   0  0  0  0  0  0  0  0  0  0  0  0
   14.0980   -4.2396   19.1885 C   0  0  0  0  0  0  0  0  0  0  0  0
   13.6779   -4.1570   20.6841 C   0  0  0  0  0  0  0  0  0  0  0  0
   14.4524   -3.0827   21.4730 C   0  0  0  0  0  0  0  0  0  0  0  0
   14.7698   -1.7645   20.7905 C   0  0  0  0  0  0  0  0  0  0  0  0
   14.0185   -5.5404   21.3758 C   0  0  0  0  0  0  0  0  0  0  0  0
   14.8846   -6.1927   20.8600 O   0  0  0  0  0  0  0  0  0  0  0  0
   13.2740   -5.7583   22.6072 N   0  0  0  0  0  0  0  0  0  0  0  0
   13.4177   -6.7974   23.6620 C   0  0  0  0  0  0  0  0  0  0  0  0
   14.5772   -7.7618   23.3688 C   0  0  0  0  0  0  0  0  0  0  0  0
   14.0802   -8.8025   22.3871 C   0  0  0  0  0  0  0  0  0  0  0  0
   12.4058   -9.2663   22.9326 S   0  0  0  0  0  0  0  0  0  0  0  0
   12.1460   -7.7138   23.9808 C   0  0  0  0  0  0  0  0  0  0  0  0
   12.4121   -7.9610   25.4480 C   0  0  0  0  0  0  0  0  0  0  0  0
   10.5946   -8.9806   25.3555 N   0  0  0  0  0  0  0  0  0  0  0  0
    9.8337   -9.6663   26.4193 C   0  0  0  0  0  0  0  0  0  0  0  0
   10.0039   -9.6992   27.6011 O   0  0  0  0  0  0  0  0  0  0  0  0
    8.6990  -10.5436   26.0285 C   0  0  0  0  0  0  0  0  0  0  0  0
    8.2070  -11.1762   24.8988 C   0  0  0  0  0  0  0  0  0  0  0  0
    7.1242  -12.0036   25.1807 N   0  0  0  0  0  0  0  0  0  0  0  0
    6.9292  -11.8850   26.4691 C   0  0  0  0  0  0  0  0  0  0  0  0
    7.8461  -11.0514   27.0227 N   0  0  0  0  0  0  0  0  0  0  0  0
   11.5580   -8.1326   25.4329 C   0  0  0  0  0  0  0  0  0  0  0  0
   14.0512   -2.1847   18.3852 H   0  0  0  0  0  0  0  0  0  0  0  0
   14.0381   -3.4612   17.1894 H   0  0  0  0  0  0  0  0  0  0  0  0
   12.5823   -3.1367   18.0998 H   0  0  0  0  0  0  0  0  0  0  0  0
   13.6621   -5.1659   18.8189 H   0  0  0  0  0  0  0  0  0  0  0  0
   15.1871   -4.3553   19.1184 H   0  0  0  0  0  0  0  0  0  0  0  0
   12.6011   -3.9865   20.7535 H   0  0  0  0  0  0  0  0  0  0  0  0
   13.9029   -2.8732   22.3995 H   0  0  0  0  0  0  0  0  0  0  0  0
   15.4110   -3.5035   21.8076 H   0  0  0  0  0  0  0  0  0  0  0  0
   15.2399   -1.0882   21.5136 H   0  0  0  0  0  0  0  0  0  0  0  0
   15.4905   -1.8968   19.9790 H   0  0  0  0  0  0  0  0  0  0  0  0
   13.8794   -1.2602   20.4225 H   0  0  0  0  0  0  0  0  0  0  0  0
   12.6726   -4.9551   22.7780 H   0  0  0  0  0  0  0  0  0  0  0  0
   13.6857   -6.1833   24.5305 H   0  0  0  0  0  0  0  0  0  0  0  0
   15.4719   -7.2520   22.9989 H   0  0  0  0  0  0  0  0  0  0  0  0
   14.8943   -8.2629   24.2919 H   0  0  0  0  0  0  0  0  0  0  0  0
   14.7281   -9.6836   22.3807 H   0  0  0  0  0  0  0  0  0  0  0  0
   14.0193   -8.4216   21.3688 H   0  0  0  0  0  0  0  0  0  0  0  0
   13.2595   -8.7693   25.6811 H   0  0  0  0  0  0  0  0  0  0  0  0
   12.7408   -7.0405   26.1875 H   0  0  0  0  0  0  0  0  0  0  0  0
    8.6002  -11.1089   23.8922 H   0  0  0  0  0  0  0  0  0  0  0  0
    6.1559  -12.3557   27.0519 H   0  0  0  0  0  0  0  0  0  0  0  0
    7.9451  -10.8218   28.0035 H   0  0  0  0  0  0  0  0  0  0  0  0
   10.7408   -7.1856   25.2426 H   0  0  0  0  0  0  0  0  0  0  0  0
   11.1773   -7.6094   26.5955 H   0  0  0  0  0  0  0  0  0  0  0  0
  1  2  1  0
  2  3  1  0
  3  4  1  0
  4  5  1  0
  3  6  1  0
  6  7  2  0
  6  8  1  0
  8  9  1  0
  9 10  1  0
 10 11  1  0
 11 12  1  0
 12 13  1  0
 13 14  1  0
 14 15  1  0
 15 16  1  0
 16 17  2  0
 16 18  1  0
 18 19  2  0
 19 20  1  0
 20 21  2  0
 21 22  1  0
 15 23  1  0
 13  9  1  0
 22 18  1  0
 23 13  1  0
  1 24  1  0
  1 25  1  0
  1 26  1  0
  2 27  1  0
  2 28  1  0
  3 29  1  0
  4 30  1  0
  4 31  1  0
  5 32  1  0
  5 33  1  0
  5 34  1  0
  8 35  1  0
  9 36  1  0
 10 37  1  0
 10 38  1  0
 11 39  1  0
 11 40  1  0
 14 41  1  0
 14 42  1  0
 19 43  1  0
 21 44  1  0
 22 45  1  0
 23 46  1  0
 23 47  1  0
M  END
>  <Energy>  (118) 
690.47510725785708

>  <compound_id>  (118) 
23880

>  <target_id>  (118) 
1

>  <reference_id>  (118) 
35

>  <inspiration_ids>  (118) 
[27, 35]

>  <energy_score>  (118) 
648.5782185467975

>  <distance_score>  (118) 
13.642249483634064

>  <path>  (118) 
/opt/xchem-fragalysis-2/maxwin/BulkDock/SCRATCH/511022/C23880-P35/C23880-P35.minimised.mol

>  <scratch_subdir>  (118) 
/opt/xchem-fragalysis-2/maxwin/BulkDock/SCRATCH/511022/C23880-P35

>  <fragmenstein_runtime>  (118) 
24.351482152938843

>  <fragmenstein_outcome>  (118) 
too moved

>  <fragmenstein_mode>  (118) 
expansion

>  <fragmenstein_error>  (118) 


$$$$
C23872-P27
     RDKit          3D

 51 52  0  0  0  0  0  0  0  0999 V2000
   15.2132   -9.5346   20.3250 C   0  0  0  0  0  0  0  0  0  0  0  0
   15.2738  -11.0669   20.2390 C   0  0  0  0  0  0  0  0  0  0  0  0
   14.8116  -11.7606   18.8960 C   0  0  0  0  0  0  0  0  0  0  0  0
   15.7837  -11.2125   17.8154 C   0  0  0  0  0  0  0  0  0  0  0  0
   15.9220  -11.9949   16.5182 C   0  0  0  0  0  0  0  0  0  0  0  0
   13.2428  -11.5933   18.7794 C   0  0  0  0  0  0  0  0  0  0  0  0
   12.6215  -11.5269   19.8033 O   0  0  0  0  0  0  0  0  0  0  0  0
   12.8156  -11.4491   17.4122 N   0  0  0  0  0  0  0  0  0  0  0  0
   11.5159  -11.0772   16.8440 C   0  0  0  0  0  0  0  0  0  0  0  0
   11.8622   -9.8907   15.7874 C   0  0  0  0  0  0  0  0  0  0  0  0
   12.2510   -7.9817   15.9078 C   0  0  0  0  0  0  0  0  0  0  0  0
   10.7896   -6.9972   15.5983 C   0  0  0  0  0  0  0  0  0  0  0  0
    9.5138   -8.5619   15.2326 C   0  0  0  0  0  0  0  0  0  0  0  0
    8.8885  -10.1335   16.0758 C   0  0  0  0  0  0  0  0  0  0  0  0
    9.2299  -11.5994   16.0548 N   0  0  0  0  0  0  0  0  0  0  0  0
    8.1775  -12.5543   15.8921 C   0  0  0  0  0  0  0  0  0  0  0  0
    7.8769  -12.8975   14.7464 O   0  0  0  0  0  0  0  0  0  0  0  0
    7.4136  -13.1134   17.0470 C   0  0  0  0  0  0  0  0  0  0  0  0
    7.4401  -12.9974   18.4340 C   0  0  0  0  0  0  0  0  0  0  0  0
    6.4569  -13.7520   19.0708 N   0  0  0  0  0  0  0  0  0  0  0  0
    5.8190  -14.3598   18.1021 C   0  0  0  0  0  0  0  0  0  0  0  0
    6.3521  -14.0208   16.8854 N   0  0  0  0  0  0  0  0  0  0  0  0
   10.6086  -12.1162   16.1956 C   0  0  0  0  0  0  0  0  0  0  0  0
   15.5927   -9.0329   19.4347 H   0  0  0  0  0  0  0  0  0  0  0  0
   14.1964   -9.2113   20.5369 H   0  0  0  0  0  0  0  0  0  0  0  0
   15.8225   -9.1997   21.1720 H   0  0  0  0  0  0  0  0  0  0  0  0
   14.7070  -11.4827   21.0820 H   0  0  0  0  0  0  0  0  0  0  0  0
   16.3137  -11.3676   20.4264 H   0  0  0  0  0  0  0  0  0  0  0  0
   14.9824  -12.8398   19.0049 H   0  0  0  0  0  0  0  0  0  0  0  0
   16.7937  -11.2339   18.2507 H   0  0  0  0  0  0  0  0  0  0  0  0
   15.6124  -10.1645   17.6106 H   0  0  0  0  0  0  0  0  0  0  0  0
   15.0791  -11.9317   15.8321 H   0  0  0  0  0  0  0  0  0  0  0  0
   16.0963  -13.0546   16.7328 H   0  0  0  0  0  0  0  0  0  0  0  0
   16.7950  -11.6289   15.9659 H   0  0  0  0  0  0  0  0  0  0  0  0
   13.6254  -11.4844   16.8089 H   0  0  0  0  0  0  0  0  0  0  0  0
   10.9552  -10.7359   17.7103 H   0  0  0  0  0  0  0  0  0  0  0  0
   11.0818  -10.1130   15.1054 H   0  0  0  0  0  0  0  0  0  0  0  0
   12.6602  -10.3257   15.1703 H   0  0  0  0  0  0  0  0  0  0  0  0
   12.5276   -7.3034   16.6827 H   0  0  0  0  0  0  0  0  0  0  0  0
   13.0685   -7.7823   15.2715 H   0  0  0  0  0  0  0  0  0  0  0  0
   10.8436   -6.4626   14.7448 H   0  0  0  0  0  0  0  0  0  0  0  0
   11.0559   -6.2736   16.3723 H   0  0  0  0  0  0  0  0  0  0  0  0
    9.8251   -9.2711   14.5007 H   0  0  0  0  0  0  0  0  0  0  0  0
    8.6686   -8.0964   14.6894 H   0  0  0  0  0  0  0  0  0  0  0  0
    8.7961  -10.0169   17.1570 H   0  0  0  0  0  0  0  0  0  0  0  0
    7.8676  -10.1667   15.6566 H   0  0  0  0  0  0  0  0  0  0  0  0
    8.1265  -12.3954   19.0167 H   0  0  0  0  0  0  0  0  0  0  0  0
    4.9846  -15.0409   18.2043 H   0  0  0  0  0  0  0  0  0  0  0  0
    6.0405  -14.3530   15.9827 H   0  0  0  0  0  0  0  0  0  0  0  0
   10.9653  -12.4060   15.2006 H   0  0  0  0  0  0  0  0  0  0  0  0
   10.5693  -13.0314   16.7973 H   0  0  0  0  0  0  0  0  0  0  0  0
  1  2  1  0
  2  3  1  0
  3  4  1  0
  4  5  1  0
  3  6  1  0
  6  7  2  0
  6  8  1  0
  8  9  1  0
  9 10  1  0
 10 11  1  0
 11 12  1  0
 12 13  1  0
 13 14  1  0
 14 15  1  0
 15 16  1  0
 16 17  2  0
 16 18  1  0
 18 19  2  0
 19 20  1  0
 20 21  2  0
 21 22  1  0
 15 23  1  0
 23  9  1  0
 22 18  1  0
  1 24  1  0
  1 25  1  0
  1 26  1  0
  2 27  1  0
  2 28  1  0
  3 29  1  0
  4 30  1  0
  4 31  1  0
  5 32  1  0
  5 33  1  0
  5 34  1  0
  8 35  1  0
  9 36  1  0
 10 37  1  0
 10 38  1  0
 11 39  1  0
 11 40  1  0
 12 41  1  0
 12 42  1  0
 13 43  1  0
 13 44  1  0
 14 45  1  0
 14 46  1  0
 19 47  1  0
 21 48  1  0
 22 49  1  0
 23 50  1  0
 23 51  1  0
M  END
>  <Energy>  (119) 
300.53193322124491

>  <compound_id>  (119) 
23872

>  <target_id>  (119) 
1

>  <reference_id>  (119) 
27

>  <inspiration_ids>  (119) 
[27, 35]

>  <energy_score>  (119) 
243.4034164635392

>  <distance_score>  (119) 
15.420799719492223

>  <path>  (119) 
/opt/xchem-fragalysis-2/maxwin/BulkDock/SCRATCH/511022/C23872-P27/C23872-P27.minimised.mol

>  <scratch_subdir>  (119) 
/opt/xchem-fragalysis-2/maxwin/BulkDock/SCRATCH/511022/C23872-P27

>  <fragmenstein_runtime>  (119) 
26.857516288757324

>  <fragmenstein_outcome>  (119) 
too moved

>  <fragmenstein_mode>  (119) 
expansion

>  <fragmenstein_error>  (119) 


$$$$
C23872-P35
     RDKit          3D

 51 52  0  0  0  0  0  0  0  0999 V2000
   14.3327   -3.8045   23.4004 C   0  0  0  0  0  0  0  0  0  0  0  0
   13.2485   -4.8625   23.6299 C   0  0  0  0  0  0  0  0  0  0  0  0
   13.5311   -6.2801   23.0366 C   0  0  0  0  0  0  0  0  0  0  0  0
   13.9477   -6.1351   21.5424 C   0  0  0  0  0  0  0  0  0  0  0  0
   13.1124   -5.2361   20.6257 C   0  0  0  0  0  0  0  0  0  0  0  0
   12.3929   -7.3490   23.5185 C   0  0  0  0  0  0  0  0  0  0  0  0
   11.7451   -7.0520   24.4810 O   0  0  0  0  0  0  0  0  0  0  0  0
   12.3196   -8.5005   22.6604 N   0  0  0  0  0  0  0  0  0  0  0  0
   11.3566   -9.6423   22.6294 C   0  0  0  0  0  0  0  0  0  0  0  0
   11.9490  -10.8046   21.8258 C   0  0  0  0  0  0  0  0  0  0  0  0
   13.3284  -11.2400   22.2968 C   0  0  0  0  0  0  0  0  0  0  0  0
   13.3272  -11.7935   23.7113 C   0  0  0  0  0  0  0  0  0  0  0  0
   12.7932  -10.8449   24.7862 C   0  0  0  0  0  0  0  0  0  0  0  0
   11.0725  -10.5006   24.7883 C   0  0  0  0  0  0  0  0  0  0  0  0
   10.6299  -11.8797   24.8543 N   0  0  0  0  0  0  0  0  0  0  0  0
    9.6884  -12.6933   24.1756 C   0  0  0  0  0  0  0  0  0  0  0  0
    9.9787  -13.3320   23.1737 O   0  0  0  0  0  0  0  0  0  0  0  0
    8.3300  -12.8767   24.7562 C   0  0  0  0  0  0  0  0  0  0  0  0
    7.2333  -13.5637   24.2127 C   0  0  0  0  0  0  0  0  0  0  0  0
    6.2095  -13.7616   25.1181 N   0  0  0  0  0  0  0  0  0  0  0  0
    6.6650  -13.2564   26.2368 C   0  0  0  0  0  0  0  0  0  0  0  0
    7.9163  -12.7071   26.0702 N   0  0  0  0  0  0  0  0  0  0  0  0
   10.5130  -10.1662   24.1148 C   0  0  0  0  0  0  0  0  0  0  0  0
   14.0736   -2.8900   23.9444 H   0  0  0  0  0  0  0  0  0  0  0  0
   15.2957   -4.1588   23.7820 H   0  0  0  0  0  0  0  0  0  0  0  0
   14.4622   -3.5315   22.3522 H   0  0  0  0  0  0  0  0  0  0  0  0
   12.2954   -4.4814   23.2510 H   0  0  0  0  0  0  0  0  0  0  0  0
   13.1151   -4.9616   24.7148 H   0  0  0  0  0  0  0  0  0  0  0  0
   14.4261   -6.6614   23.5528 H   0  0  0  0  0  0  0  0  0  0  0  0
   14.0716   -7.1203   21.0950 H   0  0  0  0  0  0  0  0  0  0  0  0
   14.9651   -5.7191   21.5339 H   0  0  0  0  0  0  0  0  0  0  0  0
   12.1398   -5.6744   20.4307 H   0  0  0  0  0  0  0  0  0  0  0  0
   13.6210   -5.1116   19.6639 H   0  0  0  0  0  0  0  0  0  0  0  0
   12.9466   -4.2356   21.0267 H   0  0  0  0  0  0  0  0  0  0  0  0
   13.0780   -8.4620   21.9924 H   0  0  0  0  0  0  0  0  0  0  0  0
   10.5310   -9.2409   22.0269 H   0  0  0  0  0  0  0  0  0  0  0  0
   12.0368  -10.5131   20.7757 H   0  0  0  0  0  0  0  0  0  0  0  0
   11.2605  -11.6537   21.8294 H   0  0  0  0  0  0  0  0  0  0  0  0
   14.0487  -10.4179   22.2215 H   0  0  0  0  0  0  0  0  0  0  0  0
   13.6970  -12.0210   21.6200 H   0  0  0  0  0  0  0  0  0  0  0  0
   14.3631  -12.0465   23.9711 H   0  0  0  0  0  0  0  0  0  0  0  0
   12.7795  -12.7419   23.7336 H   0  0  0  0  0  0  0  0  0  0  0  0
   13.3366   -9.8925   24.7425 H   0  0  0  0  0  0  0  0  0  0  0  0
   13.0096  -11.2889   25.7689 H   0  0  0  0  0  0  0  0  0  0  0  0
   10.7756  -10.6519   25.9430 H   0  0  0  0  0  0  0  0  0  0  0  0
   11.4320   -9.5813   25.5479 H   0  0  0  0  0  0  0  0  0  0  0  0
    7.1633  -13.9593   23.2058 H   0  0  0  0  0  0  0  0  0  0  0  0
    6.1565  -13.2551   27.1915 H   0  0  0  0  0  0  0  0  0  0  0  0
    8.4931  -12.3260   26.8066 H   0  0  0  0  0  0  0  0  0  0  0  0
    9.7253   -9.3386   24.5421 H   0  0  0  0  0  0  0  0  0  0  0  0
    9.6231  -10.5054   23.4409 H   0  0  0  0  0  0  0  0  0  0  0  0
  1  2  1  0
  2  3  1  0
  3  4  1  0
  4  5  1  0
  3  6  1  0
  6  7  2  0
  6  8  1  0
  8  9  1  0
  9 10  1  0
 10 11  1  0
 11 12  1  0
 12 13  1  0
 13 14  1  0
 14 15  1  0
 15 16  1  0
 16 17  2  0
 16 18  1  0
 18 19  2  0
 19 20  1  0
 20 21  2  0
 21 22  1  0
 15 23  1  0
 23  9  1  0
 22 18  1  0
  1 24  1  0
  1 25  1  0
  1 26  1  0
  2 27  1  0
  2 28  1  0
  3 29  1  0
  4 30  1  0
  4 31  1  0
  5 32  1  0
  5 33  1  0
  5 34  1  0
  8 35  1  0
  9 36  1  0
 10 37  1  0
 10 38  1  0
 11 39  1  0
 11 40  1  0
 12 41  1  0
 12 42  1  0
 13 43  1  0
 13 44  1  0
 14 45  1  0
 14 46  1  0
 19 47  1  0
 21 48  1  0
 22 49  1  0
 23 50  1  0
 23 51  1  0
M  END
>  <Energy>  (120) 
577.92827754772168

>  <compound_id>  (120) 
23872

>  <target_id>  (120) 
1

>  <reference_id>  (120) 
35

>  <inspiration_ids>  (120) 
[27, 35]

>  <energy_score>  (120) 
520.799760790021

>  <distance_score>  (120) 
13.832487095957791

>  <path>  (120) 
/opt/xchem-fragalysis-2/maxwin/BulkDock/SCRATCH/511022/C23872-P35/C23872-P35.minimised.mol

>  <scratch_subdir>  (120) 
/opt/xchem-fragalysis-2/maxwin/BulkDock/SCRATCH/511022/C23872-P35

>  <fragmenstein_runtime>  (120) 
20.519237756729126

>  <fragmenstein_outcome>  (120) 
too moved

>  <fragmenstein_mode>  (120) 
expansion

>  <fragmenstein_error>  (120) 


$$$$
C23866-P27
     RDKit          3D

 48 49  0  0  0  0  0  0  0  0999 V2000
    8.8658  -11.3119   13.8366 C   0  0  0  0  0  0  0  0  0  0  0  0
    8.1759  -10.3389   14.7646 C   0  0  0  0  0  0  0  0  0  0  0  0
    6.9186   -9.6160   14.2285 C   0  0  0  0  0  0  0  0  0  0  0  0
    6.4318   -9.8881   12.8042 C   0  0  0  0  0  0  0  0  0  0  0  0
    7.0571   -8.9743   11.7497 C   0  0  0  0  0  0  0  0  0  0  0  0
    5.7048   -9.5051   15.2080 C   0  0  0  0  0  0  0  0  0  0  0  0
    5.2662   -8.3921   15.3223 O   0  0  0  0  0  0  0  0  0  0  0  0
    5.3162  -10.7402   15.8479 N   0  0  0  0  0  0  0  0  0  0  0  0
    4.3287  -11.0075   16.9102 C   0  0  0  0  0  0  0  0  0  0  0  0
    4.7532  -10.1987   18.1463 C   0  0  0  0  0  0  0  0  0  0  0  0
    5.6930  -11.0381   18.9670 C   0  0  0  0  0  0  0  0  0  0  0  0
    4.8907  -12.2459   19.4030 C   0  0  0  0  0  0  0  0  0  0  0  0
    4.1193  -13.0763   18.1294 C   0  0  0  0  0  0  0  0  0  0  0  0
    2.3836  -12.7081   17.7014 N   0  0  0  0  0  0  0  0  0  0  0  0
    1.6057  -13.0089   18.8453 C   0  0  0  0  0  0  0  0  0  0  0  0
    1.3798  -12.1309   19.6714 O   0  0  0  0  0  0  0  0  0  0  0  0
    0.9510  -14.3250   19.0286 C   0  0  0  0  0  0  0  0  0  0  0  0
   -0.1569  -14.5790   19.8518 C   0  0  0  0  0  0  0  0  0  0  0  0
   -0.5559  -15.8910   19.8623 N   0  0  0  0  0  0  0  0  0  0  0  0
    0.2849  -16.4738   19.0462 C   0  0  0  0  0  0  0  0  0  0  0  0
    1.1793  -15.5761   18.4999 N   0  0  0  0  0  0  0  0  0  0  0  0
    3.8783  -12.7275   17.3082 C   0  0  0  0  0  0  0  0  0  0  0  0
    9.7934  -11.6732   14.2935 H   0  0  0  0  0  0  0  0  0  0  0  0
    9.1232  -10.8793   12.8686 H   0  0  0  0  0  0  0  0  0  0  0  0
    8.2312  -12.1860   13.6572 H   0  0  0  0  0  0  0  0  0  0  0  0
    8.9417   -9.5983   15.0096 H   0  0  0  0  0  0  0  0  0  0  0  0
    7.9567  -10.8535   15.7069 H   0  0  0  0  0  0  0  0  0  0  0  0
    7.2604   -8.5726   14.1839 H   0  0  0  0  0  0  0  0  0  0  0  0
    5.3467   -9.7265   12.7545 H   0  0  0  0  0  0  0  0  0  0  0  0
    6.5779  -10.9365   12.5247 H   0  0  0  0  0  0  0  0  0  0  0  0
    8.0921   -9.2480   11.5437 H   0  0  0  0  0  0  0  0  0  0  0  0
    7.0061   -7.9224   12.0380 H   0  0  0  0  0  0  0  0  0  0  0  0
    6.5116   -9.0825   10.8057 H   0  0  0  0  0  0  0  0  0  0  0  0
    5.8526  -11.5014   15.4487 H   0  0  0  0  0  0  0  0  0  0  0  0
    3.4028  -10.5439   16.5379 H   0  0  0  0  0  0  0  0  0  0  0  0
    3.8617   -9.9535   18.7383 H   0  0  0  0  0  0  0  0  0  0  0  0
    5.2204   -9.2440   17.8860 H   0  0  0  0  0  0  0  0  0  0  0  0
    6.5696  -11.3425   18.3846 H   0  0  0  0  0  0  0  0  0  0  0  0
    6.0487  -10.4847   19.8423 H   0  0  0  0  0  0  0  0  0  0  0  0
    4.1283  -11.9577   20.1386 H   0  0  0  0  0  0  0  0  0  0  0  0
    5.5683  -12.9622   19.8846 H   0  0  0  0  0  0  0  0  0  0  0  0
    3.6868  -13.7205   19.0078 H   0  0  0  0  0  0  0  0  0  0  0  0
    4.6420  -14.1936   17.9872 H   0  0  0  0  0  0  0  0  0  0  0  0
   -0.6754  -13.8343   20.4386 H   0  0  0  0  0  0  0  0  0  0  0  0
    0.3042  -17.5272   18.7993 H   0  0  0  0  0  0  0  0  0  0  0  0
    1.8922  -15.8070   17.8252 H   0  0  0  0  0  0  0  0  0  0  0  0
    4.3968  -13.4404   16.4114 H   0  0  0  0  0  0  0  0  0  0  0  0
    3.3411  -12.6316   16.2714 H   0  0  0  0  0  0  0  0  0  0  0  0
  1  2  1  0
  2  3  1  0
  3  4  1  0
  4  5  1  0
  3  6  1  0
  6  7  2  0
  6  8  1  0
  8  9  1  0
  9 10  1  0
 10 11  1  0
 11 12  1  0
 12 13  1  0
 13 14  1  0
 14 15  1  0
 15 16  2  0
 15 17  1  0
 17 18  2  0
 18 19  1  0
 19 20  2  0
 20 21  1  0
 14 22  1  0
 22  9  1  0
 21 17  1  0
  1 23  1  0
  1 24  1  0
  1 25  1  0
  2 26  1  0
  2 27  1  0
  3 28  1  0
  4 29  1  0
  4 30  1  0
  5 31  1  0
  5 32  1  0
  5 33  1  0
  8 34  1  0
  9 35  1  0
 10 36  1  0
 10 37  1  0
 11 38  1  0
 11 39  1  0
 12 40  1  0
 12 41  1  0
 13 42  1  0
 13 43  1  0
 18 44  1  0
 20 45  1  0
 21 46  1  0
 22 47  1  0
 22 48  1  0
M  END
>  <Energy>  (121) 
568.6049708107663

>  <compound_id>  (121) 
23866

>  <target_id>  (121) 
1

>  <reference_id>  (121) 
27

>  <inspiration_ids>  (121) 
[27, 35]

>  <energy_score>  (121) 
524.562540662752

>  <distance_score>  (121) 
14.701759390227915

>  <path>  (121) 
/opt/xchem-fragalysis-2/maxwin/BulkDock/SCRATCH/511022/C23866-P27/C23866-P27.minimised.mol

>  <scratch_subdir>  (121) 
/opt/xchem-fragalysis-2/maxwin/BulkDock/SCRATCH/511022/C23866-P27

>  <fragmenstein_runtime>  (121) 
40.95425987243652

>  <fragmenstein_outcome>  (121) 
too moved

>  <fragmenstein_mode>  (121) 
expansion

>  <fragmenstein_error>  (121) 


$$$$
C23866-P35
     RDKit          3D

 48 49  0  0  0  0  0  0  0  0999 V2000
    5.4046   -5.8697   20.0827 C   0  0  0  0  0  0  0  0  0  0  0  0
    5.3755   -6.7222   18.8189 C   0  0  0  0  0  0  0  0  0  0  0  0
    4.7485   -8.1576   18.9813 C   0  0  0  0  0  0  0  0  0  0  0  0
    5.4576   -8.9502   20.0913 C   0  0  0  0  0  0  0  0  0  0  0  0
    6.9172   -9.2726   19.8487 C   0  0  0  0  0  0  0  0  0  0  0  0
    4.7351   -8.8978   17.5949 C   0  0  0  0  0  0  0  0  0  0  0  0
    5.1237   -8.2602   16.6562 O   0  0  0  0  0  0  0  0  0  0  0  0
    4.3362  -10.2859   17.6917 N   0  0  0  0  0  0  0  0  0  0  0  0
    4.3735  -11.3648   16.7035 C   0  0  0  0  0  0  0  0  0  0  0  0
    5.7762  -11.4297   16.0521 C   0  0  0  0  0  0  0  0  0  0  0  0
    6.8042  -12.0000   17.0211 C   0  0  0  0  0  0  0  0  0  0  0  0
    6.1124  -12.5962   18.2412 C   0  0  0  0  0  0  0  0  0  0  0  0
    4.6150  -13.3999   17.7659 C   0  0  0  0  0  0  0  0  0  0  0  0
    3.7119  -13.5213   18.9586 N   0  0  0  0  0  0  0  0  0  0  0  0
    2.3963  -13.1957   19.2746 C   0  0  0  0  0  0  0  0  0  0  0  0
    2.0708  -12.1137   19.7521 O   0  0  0  0  0  0  0  0  0  0  0  0
    1.4025  -14.2825   19.1085 C   0  0  0  0  0  0  0  0  0  0  0  0
    1.3996  -15.5394   18.5202 C   0  0  0  0  0  0  0  0  0  0  0  0
    0.2815  -16.2869   18.8534 N   0  0  0  0  0  0  0  0  0  0  0  0
   -0.3970  -15.5321   19.6803 C   0  0  0  0  0  0  0  0  0  0  0  0
    0.2086  -14.3183   19.8332 N   0  0  0  0  0  0  0  0  0  0  0  0
    3.9773  -13.0267   17.2271 C   0  0  0  0  0  0  0  0  0  0  0  0
    4.3847   -5.6514   20.4149 H   0  0  0  0  0  0  0  0  0  0  0  0
    5.9140   -4.9230   19.9124 H   0  0  0  0  0  0  0  0  0  0  0  0
    5.9238   -6.3628   20.9062 H   0  0  0  0  0  0  0  0  0  0  0  0
    4.8028   -6.1791   18.0567 H   0  0  0  0  0  0  0  0  0  0  0  0
    6.3905   -6.8055   18.4319 H   0  0  0  0  0  0  0  0  0  0  0  0
    3.6954   -8.0291   19.2649 H   0  0  0  0  0  0  0  0  0  0  0  0
    5.3656   -8.4221   21.0468 H   0  0  0  0  0  0  0  0  0  0  0  0
    4.9324   -9.8960   20.2655 H   0  0  0  0  0  0  0  0  0  0  0  0
    7.0696   -9.7977   18.9099 H   0  0  0  0  0  0  0  0  0  0  0  0
    7.5135   -8.3767   19.8533 H   0  0  0  0  0  0  0  0  0  0  0  0
    7.2934   -9.9167   20.6506 H   0  0  0  0  0  0  0  0  0  0  0  0
    3.9819  -10.4650   18.6287 H   0  0  0  0  0  0  0  0  0  0  0  0
    3.6457  -11.1005   15.9250 H   0  0  0  0  0  0  0  0  0  0  0  0
    5.7158  -12.0892   15.1766 H   0  0  0  0  0  0  0  0  0  0  0  0
    6.1045  -10.4565   15.6743 H   0  0  0  0  0  0  0  0  0  0  0  0
    7.3812  -12.7794   16.5089 H   0  0  0  0  0  0  0  0  0  0  0  0
    7.5271  -11.2379   17.3245 H   0  0  0  0  0  0  0  0  0  0  0  0
    6.7773  -13.3192   18.7335 H   0  0  0  0  0  0  0  0  0  0  0  0
    5.8628  -11.8477   18.9988 H   0  0  0  0  0  0  0  0  0  0  0  0
    5.0601  -14.3849   17.0663 H   0  0  0  0  0  0  0  0  0  0  0  0
    5.0798  -14.2576   18.4185 H   0  0  0  0  0  0  0  0  0  0  0  0
    2.1757  -15.9699   17.9011 H   0  0  0  0  0  0  0  0  0  0  0  0
   -1.3114  -15.8028   20.1873 H   0  0  0  0  0  0  0  0  0  0  0  0
   -0.0356  -13.6114   20.5120 H   0  0  0  0  0  0  0  0  0  0  0  0
    3.5677  -13.7247   16.3157 H   0  0  0  0  0  0  0  0  0  0  0  0
    2.8715  -12.6519   17.1816 H   0  0  0  0  0  0  0  0  0  0  0  0
  1  2  1  0
  2  3  1  0
  3  4  1  0
  4  5  1  0
  3  6  1  0
  6  7  2  0
  6  8  1  0
  8  9  1  0
  9 10  1  0
 10 11  1  0
 11 12  1  0
 12 13  1  0
 13 14  1  0
 14 15  1  0
 15 16  2  0
 15 17  1  0
 17 18  2  0
 18 19  1  0
 19 20  2  0
 20 21  1  0
 14 22  1  0
 22  9  1  0
 21 17  1  0
  1 23  1  0
  1 24  1  0
  1 25  1  0
  2 26  1  0
  2 27  1  0
  3 28  1  0
  4 29  1  0
  4 30  1  0
  5 31  1  0
  5 32  1  0
  5 33  1  0
  8 34  1  0
  9 35  1  0
 10 36  1  0
 10 37  1  0
 11 38  1  0
 11 39  1  0
 12 40  1  0
 12 41  1  0
 13 42  1  0
 13 43  1  0
 18 44  1  0
 20 45  1  0
 21 46  1  0
 22 47  1  0
 22 48  1  0
M  END
>  <Energy>  (122) 
552.33575819125485

>  <compound_id>  (122) 
23866

>  <target_id>  (122) 
1

>  <reference_id>  (122) 
35

>  <inspiration_ids>  (122) 
[27, 35]

>  <energy_score>  (122) 
508.29332804325077

>  <distance_score>  (122) 
14.585035726861339

>  <path>  (122) 
/opt/xchem-fragalysis-2/maxwin/BulkDock/SCRATCH/511022/C23866-P35/C23866-P35.minimised.mol

>  <scratch_subdir>  (122) 
/opt/xchem-fragalysis-2/maxwin/BulkDock/SCRATCH/511022/C23866-P35

>  <fragmenstein_runtime>  (122) 
28.231325387954712

>  <fragmenstein_outcome>  (122) 
too moved

>  <fragmenstein_mode>  (122) 
expansion

>  <fragmenstein_error>  (122) 


$$$$
C23877-P27
     RDKit          3D

 54 55  0  0  0  0  0  0  0  0999 V2000
    7.9848   -8.6334   26.0535 C   0  0  0  0  0  0  0  0  0  0  0  0
    7.3959  -10.0292   26.3779 C   0  0  0  0  0  0  0  0  0  0  0  0
    7.7736  -11.1243   25.3810 C   0  0  0  0  0  0  0  0  0  0  0  0
    7.6012  -10.6314   23.8838 C   0  0  0  0  0  0  0  0  0  0  0  0
    8.8906  -10.1794   23.1853 C   0  0  0  0  0  0  0  0  0  0  0  0
    7.4825  -12.7307   25.4846 C   0  0  0  0  0  0  0  0  0  0  0  0
    8.5073  -13.3488   25.2976 O   0  0  0  0  0  0  0  0  0  0  0  0
    6.0345  -13.2350   25.6751 N   0  0  0  0  0  0  0  0  0  0  0  0
    5.3089  -14.9572   25.5596 C   0  0  0  0  0  0  0  0  0  0  0  0
    6.7268  -16.3549   26.1420 C   0  0  0  0  0  0  0  0  0  0  0  0
    6.1900  -18.3205   27.3472 C   0  0  0  0  0  0  0  0  0  0  0  0
    4.4501  -18.2499   28.6034 N   0  0  0  0  0  0  0  0  0  0  0  0
    4.3176  -17.7600   30.3539 C   0  0  0  0  0  0  0  0  0  0  0  0
    5.1436  -17.2748   31.0993 O   0  0  0  0  0  0  0  0  0  0  0  0
    2.7455  -18.0339   31.2743 C   0  0  0  0  0  0  0  0  0  0  0  0
    2.9869  -17.2587   32.6467 C   0  0  0  0  0  0  0  0  0  0  0  0
    2.1647  -19.4138   31.9178 C   0  0  0  0  0  0  0  0  0  0  0  0
    0.8257  -20.0273   31.4698 C   0  0  0  0  0  0  0  0  0  0  0  0
    0.4568  -21.3392   31.1987 C   0  0  0  0  0  0  0  0  0  0  0  0
   -0.8894  -21.4531   30.9336 N   0  0  0  0  0  0  0  0  0  0  0  0
   -1.3599  -20.2363   31.0695 C   0  0  0  0  0  0  0  0  0  0  0  0
   -0.3687  -19.3445   31.3904 N   0  0  0  0  0  0  0  0  0  0  0  0
    3.8855  -16.7654   27.5078 C   0  0  0  0  0  0  0  0  0  0  0  0
    4.1485  -15.0841   26.8856 C   0  0  0  0  0  0  0  0  0  0  0  0
    9.0728   -8.6832   25.9509 H   0  0  0  0  0  0  0  0  0  0  0  0
    7.5536   -8.2046   25.1456 H   0  0  0  0  0  0  0  0  0  0  0  0
    7.7586   -7.9470   26.8762 H   0  0  0  0  0  0  0  0  0  0  0  0
    7.7525  -10.3323   27.3707 H   0  0  0  0  0  0  0  0  0  0  0  0
    6.3166   -9.9497   26.4778 H   0  0  0  0  0  0  0  0  0  0  0  0
    8.8704  -11.1384   25.5202 H   0  0  0  0  0  0  0  0  0  0  0  0
    6.8469   -9.8400   23.8197 H   0  0  0  0  0  0  0  0  0  0  0  0
    7.2113  -11.4531   23.2903 H   0  0  0  0  0  0  0  0  0  0  0  0
    9.6388  -10.9783   23.2146 H   0  0  0  0  0  0  0  0  0  0  0  0
    9.3199   -9.2948   23.6602 H   0  0  0  0  0  0  0  0  0  0  0  0
    8.6876   -9.9566   22.1338 H   0  0  0  0  0  0  0  0  0  0  0  0
    5.4322  -12.4504   25.8932 H   0  0  0  0  0  0  0  0  0  0  0  0
    4.8132  -15.1322   24.5934 H   0  0  0  0  0  0  0  0  0  0  0  0
    6.4770  -16.3351   25.0077 H   0  0  0  0  0  0  0  0  0  0  0  0
    7.5724  -15.8323   26.4546 H   0  0  0  0  0  0  0  0  0  0  0  0
    5.4884  -19.3893   27.0847 H   0  0  0  0  0  0  0  0  0  0  0  0
    7.2461  -18.7720   27.7124 H   0  0  0  0  0  0  0  0  0  0  0  0
    1.9438  -17.4427   30.8132 H   0  0  0  0  0  0  0  0  0  0  0  0
    2.0338  -17.1089   33.1691 H   0  0  0  0  0  0  0  0  0  0  0  0
    3.6529  -17.8421   33.2956 H   0  0  0  0  0  0  0  0  0  0  0  0
    3.4437  -16.2738   32.5785 H   0  0  0  0  0  0  0  0  0  0  0  0
    2.9345  -20.1843   31.9967 H   0  0  0  0  0  0  0  0  0  0  0  0
    1.9452  -19.2385   32.9839 H   0  0  0  0  0  0  0  0  0  0  0  0
    1.1005  -22.2100   31.1918 H   0  0  0  0  0  0  0  0  0  0  0  0
   -2.3917  -19.9345   30.9503 H   0  0  0  0  0  0  0  0  0  0  0  0
   -0.4968  -18.3552   31.5484 H   0  0  0  0  0  0  0  0  0  0  0  0
    3.2381  -17.2709   26.7415 H   0  0  0  0  0  0  0  0  0  0  0  0
    2.9950  -16.5456   28.0700 H   0  0  0  0  0  0  0  0  0  0  0  0
    3.3736  -14.3594   26.6669 H   0  0  0  0  0  0  0  0  0  0  0  0
    4.4169  -14.4849   27.7363 H   0  0  0  0  0  0  0  0  0  0  0  0
  1  2  1  0
  2  3  1  0
  3  4  1  0
  4  5  1  0
  3  6  1  0
  6  7  2  0
  6  8  1  0
  8  9  1  0
  9 10  1  0
 10 11  1  0
 11 12  1  0
 12 13  1  0
 13 14  2  0
 13 15  1  0
 15 16  1  0
 15 17  1  0
 17 18  1  0
 18 19  2  0
 19 20  1  0
 20 21  2  0
 21 22  1  0
 12 23  1  0
 23 24  1  0
 24  9  1  0
 22 18  1  0
  1 25  1  0
  1 26  1  0
  1 27  1  0
  2 28  1  0
  2 29  1  0
  3 30  1  0
  4 31  1  0
  4 32  1  0
  5 33  1  0
  5 34  1  0
  5 35  1  0
  8 36  1  0
  9 37  1  0
 10 38  1  0
 10 39  1  0
 11 40  1  0
 11 41  1  0
 15 42  1  0
 16 43  1  0
 16 44  1  0
 16 45  1  0
 17 46  1  0
 17 47  1  0
 19 48  1  0
 21 49  1  0
 22 50  1  0
 23 51  1  0
 23 52  1  0
 24 53  1  0
 24 54  1  0
M  END
>  <Energy>  (123) 
854.85964993924892

>  <compound_id>  (123) 
23877

>  <target_id>  (123) 
1

>  <reference_id>  (123) 
27

>  <inspiration_ids>  (123) 
[27, 35]

>  <energy_score>  (123) 
835.1092245500051

>  <distance_score>  (123) 
14.718279573163615

>  <path>  (123) 
/opt/xchem-fragalysis-2/maxwin/BulkDock/SCRATCH/511022/C23877-P27/C23877-P27.minimised.mol

>  <scratch_subdir>  (123) 
/opt/xchem-fragalysis-2/maxwin/BulkDock/SCRATCH/511022/C23877-P27

>  <fragmenstein_runtime>  (123) 
52.56120777130127

>  <fragmenstein_outcome>  (123) 
too moved

>  <fragmenstein_mode>  (123) 
expansion

>  <fragmenstein_error>  (123) 


$$$$
C23877-P35
     RDKit          3D

 54 55  0  0  0  0  0  0  0  0999 V2000
   12.8899   -3.9898   17.0314 C   0  0  0  0  0  0  0  0  0  0  0  0
   13.0532   -5.5523   16.7630 C   0  0  0  0  0  0  0  0  0  0  0  0
   12.2784   -7.2453   16.0776 C   0  0  0  0  0  0  0  0  0  0  0  0
   11.3570   -5.9634   15.8551 C   0  0  0  0  0  0  0  0  0  0  0  0
   11.2582   -4.3430   15.0617 C   0  0  0  0  0  0  0  0  0  0  0  0
   11.7077   -9.3183   15.8984 C   0  0  0  0  0  0  0  0  0  0  0  0
   10.5146   -9.4267   15.6691 O   0  0  0  0  0  0  0  0  0  0  0  0
   12.6987  -10.4724   16.0259 N   0  0  0  0  0  0  0  0  0  0  0  0
   12.5146  -11.9165   16.0152 C   0  0  0  0  0  0  0  0  0  0  0  0
   11.7469  -12.4275   14.8187 C   0  0  0  0  0  0  0  0  0  0  0  0
   10.3309  -12.8622   15.1984 C   0  0  0  0  0  0  0  0  0  0  0  0
   10.2360  -14.0724   16.1010 N   0  0  0  0  0  0  0  0  0  0  0  0
    9.1041  -14.8875   16.4647 C   0  0  0  0  0  0  0  0  0  0  0  0
    7.9324  -14.7554   16.2122 O   0  0  0  0  0  0  0  0  0  0  0  0
    9.5171  -16.2185   17.2282 C   0  0  0  0  0  0  0  0  0  0  0  0
   10.6258  -16.0910   18.2630 C   0  0  0  0  0  0  0  0  0  0  0  0
    8.2585  -16.9104   17.8431 C   0  0  0  0  0  0  0  0  0  0  0  0
    8.3434  -18.3884   18.1663 C   0  0  0  0  0  0  0  0  0  0  0  0
    8.2417  -19.0890   19.3498 C   0  0  0  0  0  0  0  0  0  0  0  0
    8.2178  -20.4484   19.1351 N   0  0  0  0  0  0  0  0  0  0  0  0
    8.3365  -20.5970   17.8438 C   0  0  0  0  0  0  0  0  0  0  0  0
    8.4123  -19.3845   17.2173 N   0  0  0  0  0  0  0  0  0  0  0  0
   10.4940  -13.0090   17.1771 C   0  0  0  0  0  0  0  0  0  0  0  0
   11.9390  -12.4830   17.3079 C   0  0  0  0  0  0  0  0  0  0  0  0
   11.8923   -3.6707   17.2974 H   0  0  0  0  0  0  0  0  0  0  0  0
   13.5184   -3.7204   17.8961 H   0  0  0  0  0  0  0  0  0  0  0  0
   13.3190   -3.3655   16.2415 H   0  0  0  0  0  0  0  0  0  0  0  0
   13.9430   -5.3908   16.1372 H   0  0  0  0  0  0  0  0  0  0  0  0
   13.0769   -5.6272   17.8628 H   0  0  0  0  0  0  0  0  0  0  0  0
   13.0837   -7.3502   15.3977 H   0  0  0  0  0  0  0  0  0  0  0  0
   10.7276   -6.5149   15.2140 H   0  0  0  0  0  0  0  0  0  0  0  0
   11.0465   -5.5520   16.8010 H   0  0  0  0  0  0  0  0  0  0  0  0
   10.6387   -3.6564   15.6317 H   0  0  0  0  0  0  0  0  0  0  0  0
   10.7892   -4.4555   14.0946 H   0  0  0  0  0  0  0  0  0  0  0  0
   12.2084   -3.8647   14.8264 H   0  0  0  0  0  0  0  0  0  0  0  0
   13.6113  -10.0905   16.1285 H   0  0  0  0  0  0  0  0  0  0  0  0
   13.5463  -12.2826   15.9280 H   0  0  0  0  0  0  0  0  0  0  0  0
   12.2695  -13.3071   14.4189 H   0  0  0  0  0  0  0  0  0  0  0  0
   11.7139  -11.6961   14.0046 H   0  0  0  0  0  0  0  0  0  0  0  0
    9.9152  -13.2708   14.2627 H   0  0  0  0  0  0  0  0  0  0  0  0
    9.6131  -12.0440   15.3753 H   0  0  0  0  0  0  0  0  0  0  0  0
    9.8944  -16.8725   16.4289 H   0  0  0  0  0  0  0  0  0  0  0  0
   10.8976  -17.0715   18.6671 H   0  0  0  0  0  0  0  0  0  0  0  0
   10.3164  -15.4583   19.0987 H   0  0  0  0  0  0  0  0  0  0  0  0
   11.5342  -15.6640   17.8281 H   0  0  0  0  0  0  0  0  0  0  0  0
    7.4131  -16.8098   17.1520 H   0  0  0  0  0  0  0  0  0  0  0  0
    7.9618  -16.3667   18.7496 H   0  0  0  0  0  0  0  0  0  0  0  0
    8.1517  -18.6864   20.3418 H   0  0  0  0  0  0  0  0  0  0  0  0
    8.3768  -21.5368   17.3090 H   0  0  0  0  0  0  0  0  0  0  0  0
    8.5171  -19.2492   16.2211 H   0  0  0  0  0  0  0  0  0  0  0  0
    9.7272  -12.2163   17.2399 H   0  0  0  0  0  0  0  0  0  0  0  0
   10.3039  -13.5167   18.1311 H   0  0  0  0  0  0  0  0  0  0  0  0
   12.5646  -13.3350   17.6068 H   0  0  0  0  0  0  0  0  0  0  0  0
   11.9930  -11.7632   18.1320 H   0  0  0  0  0  0  0  0  0  0  0  0
  1  2  1  0
  2  3  1  0
  3  4  1  0
  4  5  1  0
  3  6  1  0
  6  7  2  0
  6  8  1  0
  8  9  1  0
  9 10  1  0
 10 11  1  0
 11 12  1  0
 12 13  1  0
 13 14  2  0
 13 15  1  0
 15 16  1  0
 15 17  1  0
 17 18  1  0
 18 19  2  0
 19 20  1  0
 20 21  2  0
 21 22  1  0
 12 23  1  0
 23 24  1  0
 24  9  1  0
 22 18  1  0
  1 25  1  0
  1 26  1  0
  1 27  1  0
  2 28  1  0
  2 29  1  0
  3 30  1  0
  4 31  1  0
  4 32  1  0
  5 33  1  0
  5 34  1  0
  5 35  1  0
  8 36  1  0
  9 37  1  0
 10 38  1  0
 10 39  1  0
 11 40  1  0
 11 41  1  0
 15 42  1  0
 16 43  1  0
 16 44  1  0
 16 45  1  0
 17 46  1  0
 17 47  1  0
 19 48  1  0
 21 49  1  0
 22 50  1  0
 23 51  1  0
 23 52  1  0
 24 53  1  0
 24 54  1  0
M  END
>  <Energy>  (124) 
431.31092542869624

>  <compound_id>  (124) 
23877

>  <target_id>  (124) 
1

>  <reference_id>  (124) 
35

>  <inspiration_ids>  (124) 
[27, 35]

>  <energy_score>  (124) 
411.56050003945916

>  <distance_score>  (124) 
14.243782794452773

>  <path>  (124) 
/opt/xchem-fragalysis-2/maxwin/BulkDock/SCRATCH/511022/C23877-P35/C23877-P35.minimised.mol

>  <scratch_subdir>  (124) 
/opt/xchem-fragalysis-2/maxwin/BulkDock/SCRATCH/511022/C23877-P35

>  <fragmenstein_runtime>  (124) 
30.432428121566772

>  <fragmenstein_outcome>  (124) 
too moved

>  <fragmenstein_mode>  (124) 
expansion

>  <fragmenstein_error>  (124) 


$$$$
C73152-P27
     RDKit          3D

 54 55  0  0  0  0  0  0  0  0999 V2000
   13.5133   -7.4897   22.2110 C   0  0  0  0  0  0  0  0  0  0  0  0
   12.6529   -8.0076   23.3678 C   0  0  0  0  0  0  0  0  0  0  0  0
   11.8407   -9.3385   23.1405 C   0  0  0  0  0  0  0  0  0  0  0  0
   11.2640   -9.3864   21.7181 C   0  0  0  0  0  0  0  0  0  0  0  0
   10.0211  -10.2115   21.4593 C   0  0  0  0  0  0  0  0  0  0  0  0
   10.7650   -9.5400   24.2571 C   0  0  0  0  0  0  0  0  0  0  0  0
   10.2280   -8.5614   24.6970 O   0  0  0  0  0  0  0  0  0  0  0  0
   10.6312  -10.9431   24.6254 N   0  0  0  0  0  0  0  0  0  0  0  0
    9.8759  -11.5855   25.7094 C   0  0  0  0  0  0  0  0  0  0  0  0
    8.7430  -10.7439   26.2155 C   0  0  0  0  0  0  0  0  0  0  0  0
    8.0301  -11.5908   27.2674 C   0  0  0  0  0  0  0  0  0  0  0  0
    6.9743  -12.5756   26.8619 N   0  0  0  0  0  0  0  0  0  0  0  0
    6.1035  -12.6085   25.7356 C   0  0  0  0  0  0  0  0  0  0  0  0
    6.0852  -11.8772   24.7820 O   0  0  0  0  0  0  0  0  0  0  0  0
    4.6198  -13.8539   25.7055 C   0  0  0  0  0  0  0  0  0  0  0  0
    4.0346  -13.9181   27.4451 C   0  0  0  0  0  0  0  0  0  0  0  0
    3.3261  -13.4366   24.3734 C   0  0  0  0  0  0  0  0  0  0  0  0
    4.4116  -15.2495   25.4298 C   0  0  0  0  0  0  0  0  0  0  0  0
    4.4294  -16.2146   24.3025 C   0  0  0  0  0  0  0  0  0  0  0  0
    3.6037  -17.6669   25.0103 N   0  0  0  0  0  0  0  0  0  0  0  0
    3.1436  -17.3541   26.3162 C   0  0  0  0  0  0  0  0  0  0  0  0
    3.7714  -16.2223   26.7404 N   0  0  0  0  0  0  0  0  0  0  0  0
    8.2594  -13.4738   26.5974 C   0  0  0  0  0  0  0  0  0  0  0  0
    9.2611  -12.9612   25.4307 C   0  0  0  0  0  0  0  0  0  0  0  0
   14.1587   -8.2836   21.8232 H   0  0  0  0  0  0  0  0  0  0  0  0
   14.1531   -6.6734   22.5615 H   0  0  0  0  0  0  0  0  0  0  0  0
   12.9064   -7.0981   21.3942 H   0  0  0  0  0  0  0  0  0  0  0  0
   11.9873   -7.2004   23.6839 H   0  0  0  0  0  0  0  0  0  0  0  0
   13.3113   -8.1802   24.2300 H   0  0  0  0  0  0  0  0  0  0  0  0
   12.5701  -10.1549   23.2338 H   0  0  0  0  0  0  0  0  0  0  0  0
   11.0685   -8.3805   21.3497 H   0  0  0  0  0  0  0  0  0  0  0  0
   12.0561   -9.8359   21.1149 H   0  0  0  0  0  0  0  0  0  0  0  0
    9.7402  -10.1535   20.4028 H   0  0  0  0  0  0  0  0  0  0  0  0
    9.1695   -9.8705   22.0528 H   0  0  0  0  0  0  0  0  0  0  0  0
   10.1985  -11.2652   21.6983 H   0  0  0  0  0  0  0  0  0  0  0  0
   11.3012  -11.4895   24.0971 H   0  0  0  0  0  0  0  0  0  0  0  0
   10.6113  -11.7066   26.5159 H   0  0  0  0  0  0  0  0  0  0  0  0
    8.0660  -10.4327   25.4134 H   0  0  0  0  0  0  0  0  0  0  0  0
    9.1273   -9.8318   26.6871 H   0  0  0  0  0  0  0  0  0  0  0  0
    7.3830  -10.8433   27.7569 H   0  0  0  0  0  0  0  0  0  0  0  0
    8.6572  -11.8864   28.1261 H   0  0  0  0  0  0  0  0  0  0  0  0
    4.5321  -13.1546   28.0605 H   0  0  0  0  0  0  0  0  0  0  0  0
    4.1056  -14.7967   28.0801 H   0  0  0  0  0  0  0  0  0  0  0  0
    2.9584  -13.8366   27.3934 H   0  0  0  0  0  0  0  0  0  0  0  0
    2.3326  -13.1457   24.7445 H   0  0  0  0  0  0  0  0  0  0  0  0
    3.4724  -12.6217   23.6742 H   0  0  0  0  0  0  0  0  0  0  0  0
    3.2262  -14.2406   23.6419 H   0  0  0  0  0  0  0  0  0  0  0  0
    4.0337  -16.1076   23.3396 H   0  0  0  0  0  0  0  0  0  0  0  0
    3.2927  -18.3434   24.3229 H   0  0  0  0  0  0  0  0  0  0  0  0
    2.4153  -17.8738   26.8710 H   0  0  0  0  0  0  0  0  0  0  0  0
    7.9253  -14.4480   26.2463 H   0  0  0  0  0  0  0  0  0  0  0  0
    8.8163  -13.7051   27.5194 H   0  0  0  0  0  0  0  0  0  0  0  0
   10.0706  -13.6880   25.3334 H   0  0  0  0  0  0  0  0  0  0  0  0
    8.7259  -12.9323   24.4779 H   0  0  0  0  0  0  0  0  0  0  0  0
  1  2  1  0
  2  3  1  0
  3  4  1  0
  4  5  1  0
  3  6  1  0
  6  7  2  0
  6  8  1  0
  8  9  1  0
  9 10  1  0
 10 11  1  0
 11 12  1  0
 12 13  1  0
 13 14  2  0
 13 15  1  0
 15 16  1  0
 15 17  1  0
 15 18  1  0
 18 19  2  0
 19 20  1  0
 20 21  1  0
 21 22  2  0
 12 23  1  0
 23 24  1  0
 24  9  1  0
 22 18  1  0
  1 25  1  0
  1 26  1  0
  1 27  1  0
  2 28  1  0
  2 29  1  0
  3 30  1  0
  4 31  1  0
  4 32  1  0
  5 33  1  0
  5 34  1  0
  5 35  1  0
  8 36  1  0
  9 37  1  0
 10 38  1  0
 10 39  1  0
 11 40  1  0
 11 41  1  0
 16 42  1  0
 16 43  1  0
 16 44  1  0
 17 45  1  0
 17 46  1  0
 17 47  1  0
 19 48  1  0
 20 49  1  0
 21 50  1  0
 23 51  1  0
 23 52  1  0
 24 53  1  0
 24 54  1  0
M  END
>  <Energy>  (125) 
341.16637914171611

>  <compound_id>  (125) 
73152

>  <target_id>  (125) 
1

>  <reference_id>  (125) 
27

>  <inspiration_ids>  (125) 
[27, 35]

>  <energy_score>  (125) 
267.8403502307385

>  <distance_score>  (125) 
13.620908707943538

>  <path>  (125) 
/opt/xchem-fragalysis-2/maxwin/BulkDock/SCRATCH/511022/C73152-P27/C73152-P27.minimised.mol

>  <scratch_subdir>  (125) 
/opt/xchem-fragalysis-2/maxwin/BulkDock/SCRATCH/511022/C73152-P27

>  <fragmenstein_runtime>  (125) 
43.13165807723999

>  <fragmenstein_outcome>  (125) 
too moved

>  <fragmenstein_mode>  (125) 
expansion

>  <fragmenstein_error>  (125) 


$$$$
C73152-P35
     RDKit          3D

 54 55  0  0  0  0  0  0  0  0999 V2000
   12.9628   -4.8510   23.8755 C   0  0  0  0  0  0  0  0  0  0  0  0
   12.2075   -5.7098   24.8953 C   0  0  0  0  0  0  0  0  0  0  0  0
   12.2980   -7.2700   24.8492 C   0  0  0  0  0  0  0  0  0  0  0  0
   13.1979   -7.8716   23.7314 C   0  0  0  0  0  0  0  0  0  0  0  0
   12.8772   -7.7125   22.2534 C   0  0  0  0  0  0  0  0  0  0  0  0
   10.8850   -8.0035   25.0229 C   0  0  0  0  0  0  0  0  0  0  0  0
   10.3274   -8.3948   24.0346 O   0  0  0  0  0  0  0  0  0  0  0  0
   10.4542   -7.9980   26.4188 N   0  0  0  0  0  0  0  0  0  0  0  0
    9.1620   -8.3801   27.0394 C   0  0  0  0  0  0  0  0  0  0  0  0
    8.3762   -9.5584   26.4673 C   0  0  0  0  0  0  0  0  0  0  0  0
    8.2547  -10.7057   27.5279 C   0  0  0  0  0  0  0  0  0  0  0  0
    7.4580  -10.8221   28.8320 N   0  0  0  0  0  0  0  0  0  0  0  0
    6.0128  -10.9463   29.0620 C   0  0  0  0  0  0  0  0  0  0  0  0
    5.0922  -10.8949   28.2852 O   0  0  0  0  0  0  0  0  0  0  0  0
    5.5919  -11.3228   30.5941 C   0  0  0  0  0  0  0  0  0  0  0  0
    6.8206  -11.6508   31.4654 C   0  0  0  0  0  0  0  0  0  0  0  0
    4.9109  -10.0594   31.1601 C   0  0  0  0  0  0  0  0  0  0  0  0
    4.5454  -12.5469   30.7357 C   0  0  0  0  0  0  0  0  0  0  0  0
    3.9457  -13.3945   29.8206 C   0  0  0  0  0  0  0  0  0  0  0  0
    3.3318  -14.3964   30.5380 N   0  0  0  0  0  0  0  0  0  0  0  0
    3.3886  -14.0445   31.8483 C   0  0  0  0  0  0  0  0  0  0  0  0
    4.1100  -12.9538   32.0072 N   0  0  0  0  0  0  0  0  0  0  0  0
    7.8922   -9.3449   28.9738 C   0  0  0  0  0  0  0  0  0  0  0  0
    9.2567   -8.6865   28.5352 C   0  0  0  0  0  0  0  0  0  0  0  0
   14.0153   -5.1409   23.8121 H   0  0  0  0  0  0  0  0  0  0  0  0
   12.9310   -3.8023   24.1916 H   0  0  0  0  0  0  0  0  0  0  0  0
   12.5167   -4.8901   22.8837 H   0  0  0  0  0  0  0  0  0  0  0  0
   11.1618   -5.3965   24.9273 H   0  0  0  0  0  0  0  0  0  0  0  0
   12.5952   -5.4141   25.8812 H   0  0  0  0  0  0  0  0  0  0  0  0
   12.8401   -7.5481   25.7680 H   0  0  0  0  0  0  0  0  0  0  0  0
   14.2221   -7.5092   23.8903 H   0  0  0  0  0  0  0  0  0  0  0  0
   13.2456   -8.9534   23.9203 H   0  0  0  0  0  0  0  0  0  0  0  0
   11.8822   -8.0927   22.0153 H   0  0  0  0  0  0  0  0  0  0  0  0
   13.5904   -8.3167   21.6807 H   0  0  0  0  0  0  0  0  0  0  0  0
   12.9979   -6.6910   21.8978 H   0  0  0  0  0  0  0  0  0  0  0  0
   11.1483   -7.5128   26.9781 H   0  0  0  0  0  0  0  0  0  0  0  0
    8.5432   -7.4832   26.9045 H   0  0  0  0  0  0  0  0  0  0  0  0
    8.8574   -9.9573   25.5685 H   0  0  0  0  0  0  0  0  0  0  0  0
    7.3677   -9.2368   26.1790 H   0  0  0  0  0  0  0  0  0  0  0  0
    7.7981  -11.5238   26.9483 H   0  0  0  0  0  0  0  0  0  0  0  0
    9.2578  -11.1010   27.7569 H   0  0  0  0  0  0  0  0  0  0  0  0
    7.4022  -12.4739   31.0414 H   0  0  0  0  0  0  0  0  0  0  0  0
    7.4928  -10.7934   31.5654 H   0  0  0  0  0  0  0  0  0  0  0  0
    6.5297  -11.9437   32.4807 H   0  0  0  0  0  0  0  0  0  0  0  0
    5.5665   -9.1852   31.0843 H   0  0  0  0  0  0  0  0  0  0  0  0
    3.9920   -9.8277   30.6086 H   0  0  0  0  0  0  0  0  0  0  0  0
    4.6387  -10.1860   32.2141 H   0  0  0  0  0  0  0  0  0  0  0  0
    3.9839  -13.4450   28.7444 H   0  0  0  0  0  0  0  0  0  0  0  0
    2.9009  -15.2265   30.1534 H   0  0  0  0  0  0  0  0  0  0  0  0
    2.9211  -14.6199   32.6352 H   0  0  0  0  0  0  0  0  0  0  0  0
    7.0577   -8.7203   28.6108 H   0  0  0  0  0  0  0  0  0  0  0  0
    7.8578   -9.1952   30.0615 H   0  0  0  0  0  0  0  0  0  0  0  0
    9.4015   -7.7480   29.0840 H   0  0  0  0  0  0  0  0  0  0  0  0
   10.1077   -9.3323   28.7824 H   0  0  0  0  0  0  0  0  0  0  0  0
  1  2  1  0
  2  3  1  0
  3  4  1  0
  4  5  1  0
  3  6  1  0
  6  7  2  0
  6  8  1  0
  8  9  1  0
  9 10  1  0
 10 11  1  0
 11 12  1  0
 12 13  1  0
 13 14  2  0
 13 15  1  0
 15 16  1  0
 15 17  1  0
 15 18  1  0
 18 19  2  0
 19 20  1  0
 20 21  1  0
 21 22  2  0
 12 23  1  0
 23 24  1  0
 24  9  1  0
 22 18  1  0
  1 25  1  0
  1 26  1  0
  1 27  1  0
  2 28  1  0
  2 29  1  0
  3 30  1  0
  4 31  1  0
  4 32  1  0
  5 33  1  0
  5 34  1  0
  5 35  1  0
  8 36  1  0
  9 37  1  0
 10 38  1  0
 10 39  1  0
 11 40  1  0
 11 41  1  0
 16 42  1  0
 16 43  1  0
 16 44  1  0
 17 45  1  0
 17 46  1  0
 17 47  1  0
 19 48  1  0
 20 49  1  0
 21 50  1  0
 23 51  1  0
 23 52  1  0
 24 53  1  0
 24 54  1  0
M  END
>  <Energy>  (126) 
130.71955745606999

>  <compound_id>  (126) 
73152

>  <target_id>  (126) 
1

>  <reference_id>  (126) 
35

>  <inspiration_ids>  (126) 
[27, 35]

>  <energy_score>  (126) 
57.393528545102185

>  <distance_score>  (126) 
13.81552830630105

>  <path>  (126) 
/opt/xchem-fragalysis-2/maxwin/BulkDock/SCRATCH/511022/C73152-P35/C73152-P35.minimised.mol

>  <scratch_subdir>  (126) 
/opt/xchem-fragalysis-2/maxwin/BulkDock/SCRATCH/511022/C73152-P35

>  <fragmenstein_runtime>  (126) 
40.9043824672699

>  <fragmenstein_outcome>  (126) 
too moved

>  <fragmenstein_mode>  (126) 
expansion

>  <fragmenstein_error>  (126) 


$$$$
C23876-P27
     RDKit          3D

 51 52  0  0  0  0  0  0  0  0999 V2000
   13.9781   -2.6807   17.0680 C   0  0  0  0  0  0  0  0  0  0  0  0
   13.1023   -3.9276   17.2435 C   0  0  0  0  0  0  0  0  0  0  0  0
   11.4901   -3.6595   17.1673 C   0  0  0  0  0  0  0  0  0  0  0  0
   11.2684   -3.1648   15.6959 C   0  0  0  0  0  0  0  0  0  0  0  0
   11.0543   -1.6611   15.5699 C   0  0  0  0  0  0  0  0  0  0  0  0
   10.9933   -5.2264   17.4211 C   0  0  0  0  0  0  0  0  0  0  0  0
   11.4067   -5.9412   16.4627 O   0  0  0  0  0  0  0  0  0  0  0  0
   10.0891   -6.0223   18.9968 N   0  0  0  0  0  0  0  0  0  0  0  0
    9.7587   -8.1011   19.5713 C   0  0  0  0  0  0  0  0  0  0  0  0
    8.2501   -9.3356   18.8200 C   0  0  0  0  0  0  0  0  0  0  0  0
    6.7110  -10.3286   18.8352 N   0  0  0  0  0  0  0  0  0  0  0  0
    6.2951  -11.6696   19.7152 C   0  0  0  0  0  0  0  0  0  0  0  0
    6.8942  -12.2182   20.5976 O   0  0  0  0  0  0  0  0  0  0  0  0
    5.1056  -12.4463   19.3779 C   0  0  0  0  0  0  0  0  0  0  0  0
    3.9578  -12.6049   18.6363 C   0  0  0  0  0  0  0  0  0  0  0  0
    3.3521  -13.8787   18.5077 N   0  0  0  0  0  0  0  0  0  0  0  0
    4.4201  -14.5423   18.5199 C   0  0  0  0  0  0  0  0  0  0  0  0
    5.2691  -13.7773   19.3354 N   0  0  0  0  0  0  0  0  0  0  0  0
   11.0143   -9.7631   19.3222 C   0  0  0  0  0  0  0  0  0  0  0  0
   12.4450  -10.4912   20.2650 C   0  0  0  0  0  0  0  0  0  0  0  0
   13.1652   -9.5902   21.2536 C   0  0  0  0  0  0  0  0  0  0  0  0
   12.1079   -8.7842   21.9338 C   0  0  0  0  0  0  0  0  0  0  0  0
   10.9149   -8.1149   21.0989 C   0  0  0  0  0  0  0  0  0  0  0  0
   13.8999   -2.2695   16.0583 H   0  0  0  0  0  0  0  0  0  0  0  0
   13.7183   -1.8999   17.7874 H   0  0  0  0  0  0  0  0  0  0  0  0
   15.0281   -2.9460   17.2307 H   0  0  0  0  0  0  0  0  0  0  0  0
   13.4158   -4.6666   16.5003 H   0  0  0  0  0  0  0  0  0  0  0  0
   13.3246   -4.3625   18.2279 H   0  0  0  0  0  0  0  0  0  0  0  0
   11.6716   -2.8399   17.8305 H   0  0  0  0  0  0  0  0  0  0  0  0
   10.4177   -3.6636   15.2294 H   0  0  0  0  0  0  0  0  0  0  0  0
   12.1204   -3.4290   15.0626 H   0  0  0  0  0  0  0  0  0  0  0  0
   11.1503   -1.3571   14.5232 H   0  0  0  0  0  0  0  0  0  0  0  0
   11.7874   -1.0912   16.1467 H   0  0  0  0  0  0  0  0  0  0  0  0
   10.0537   -1.3723   15.9007 H   0  0  0  0  0  0  0  0  0  0  0  0
    9.9148   -5.2891   19.6863 H   0  0  0  0  0  0  0  0  0  0  0  0
    7.5025   -8.5792   18.5298 H   0  0  0  0  0  0  0  0  0  0  0  0
    8.6391   -9.8275   17.9199 H   0  0  0  0  0  0  0  0  0  0  0  0
    6.0163  -10.1710   18.1003 H   0  0  0  0  0  0  0  0  0  0  0  0
    3.5152  -11.9006   17.9125 H   0  0  0  0  0  0  0  0  0  0  0  0
    4.5569  -15.5604   18.2713 H   0  0  0  0  0  0  0  0  0  0  0  0
    6.1151  -14.1504   19.5776 H   0  0  0  0  0  0  0  0  0  0  0  0
   10.5794  -10.6969   18.8131 H   0  0  0  0  0  0  0  0  0  0  0  0
   11.4753   -9.8693   18.3668 H   0  0  0  0  0  0  0  0  0  0  0  0
   13.1489  -10.8580   19.5036 H   0  0  0  0  0  0  0  0  0  0  0  0
   12.2405  -11.3627   20.8629 H   0  0  0  0  0  0  0  0  0  0  0  0
   13.7157  -10.1953   21.9850 H   0  0  0  0  0  0  0  0  0  0  0  0
   13.9286   -8.9580   20.7881 H   0  0  0  0  0  0  0  0  0  0  0  0
   11.6853   -9.4005   22.7449 H   0  0  0  0  0  0  0  0  0  0  0  0
   12.6086   -7.9798   22.4954 H   0  0  0  0  0  0  0  0  0  0  0  0
   10.3045   -8.1203   21.9713 H   0  0  0  0  0  0  0  0  0  0  0  0
   11.5404   -7.2521   20.8837 H   0  0  0  0  0  0  0  0  0  0  0  0
  1  2  1  0
  2  3  1  0
  3  4  1  0
  4  5  1  0
  3  6  1  0
  6  7  2  0
  6  8  1  0
  8  9  1  0
  9 10  1  0
 10 11  1  0
 11 12  1  0
 12 13  2  0
 12 14  1  0
 14 15  2  0
 15 16  1  0
 16 17  2  0
 17 18  1  0
  9 19  1  0
 19 20  1  0
 20 21  1  0
 21 22  1  0
 22 23  1  0
 23  9  1  0
 18 14  1  0
  1 24  1  0
  1 25  1  0
  1 26  1  0
  2 27  1  0
  2 28  1  0
  3 29  1  0
  4 30  1  0
  4 31  1  0
  5 32  1  0
  5 33  1  0
  5 34  1  0
  8 35  1  0
 10 36  1  0
 10 37  1  0
 11 38  1  0
 15 39  1  0
 17 40  1  0
 18 41  1  0
 19 42  1  0
 19 43  1  0
 20 44  1  0
 20 45  1  0
 21 46  1  0
 21 47  1  0
 22 48  1  0
 22 49  1  0
 23 50  1  0
 23 51  1  0
M  END
>  <Energy>  (127) 
827.05839841107206

>  <compound_id>  (127) 
23876

>  <target_id>  (127) 
1

>  <reference_id>  (127) 
27

>  <inspiration_ids>  (127) 
[27, 35]

>  <energy_score>  (127) 
808.8884886883094

>  <distance_score>  (127) 
13.03718528559046

>  <path>  (127) 
/opt/xchem-fragalysis-2/maxwin/BulkDock/SCRATCH/511022/C23876-P27/C23876-P27.minimised.mol

>  <scratch_subdir>  (127) 
/opt/xchem-fragalysis-2/maxwin/BulkDock/SCRATCH/511022/C23876-P27

>  <fragmenstein_runtime>  (127) 
35.55943942070007

>  <fragmenstein_outcome>  (127) 
too moved

>  <fragmenstein_mode>  (127) 
expansion

>  <fragmenstein_error>  (127) 


$$$$
C23876-P35
     RDKit          3D

 51 52  0  0  0  0  0  0  0  0999 V2000
   14.9539   -2.4373   21.4598 C   0  0  0  0  0  0  0  0  0  0  0  0
   14.3531   -3.4241   22.4551 C   0  0  0  0  0  0  0  0  0  0  0  0
   13.9517   -4.8280   21.9268 C   0  0  0  0  0  0  0  0  0  0  0  0
   13.0311   -4.7452   20.6930 C   0  0  0  0  0  0  0  0  0  0  0  0
   13.7047   -4.4366   19.3573 C   0  0  0  0  0  0  0  0  0  0  0  0
   13.2893   -5.6829   23.1068 C   0  0  0  0  0  0  0  0  0  0  0  0
   12.9259   -5.1286   24.1043 O   0  0  0  0  0  0  0  0  0  0  0  0
   13.3147   -7.0933   22.7656 N   0  0  0  0  0  0  0  0  0  0  0  0
   12.9856   -8.3274   23.5946 C   0  0  0  0  0  0  0  0  0  0  0  0
   11.4533   -8.3092   24.0096 C   0  0  0  0  0  0  0  0  0  0  0  0
   10.6700   -9.2806   24.8132 N   0  0  0  0  0  0  0  0  0  0  0  0
   10.5104  -10.7035   24.6821 C   0  0  0  0  0  0  0  0  0  0  0  0
   11.0325  -11.4791   23.9405 O   0  0  0  0  0  0  0  0  0  0  0  0
    9.4367  -11.2397   25.5708 C   0  0  0  0  0  0  0  0  0  0  0  0
    9.4869  -12.1892   26.5853 C   0  0  0  0  0  0  0  0  0  0  0  0
    8.2390  -12.5873   27.0120 N   0  0  0  0  0  0  0  0  0  0  0  0
    7.4011  -11.9120   26.2749 C   0  0  0  0  0  0  0  0  0  0  0  0
    8.0593  -11.0847   25.4050 N   0  0  0  0  0  0  0  0  0  0  0  0
   13.3487   -9.5394   22.7156 C   0  0  0  0  0  0  0  0  0  0  0  0
   14.8048   -9.5247   22.2117 C   0  0  0  0  0  0  0  0  0  0  0  0
   15.7685   -8.7529   23.1133 C   0  0  0  0  0  0  0  0  0  0  0  0
   15.3396   -8.7891   24.5747 C   0  0  0  0  0  0  0  0  0  0  0  0
   13.8950   -8.3273   24.8381 C   0  0  0  0  0  0  0  0  0  0  0  0
   15.7325   -2.9083   20.8530 H   0  0  0  0  0  0  0  0  0  0  0  0
   14.1887   -2.0047   20.8121 H   0  0  0  0  0  0  0  0  0  0  0  0
   15.4129   -1.6032   22.0018 H   0  0  0  0  0  0  0  0  0  0  0  0
   13.4916   -2.9480   22.9367 H   0  0  0  0  0  0  0  0  0  0  0  0
   15.0860   -3.5746   23.2594 H   0  0  0  0  0  0  0  0  0  0  0  0
   14.8768   -5.3516   21.6494 H   0  0  0  0  0  0  0  0  0  0  0  0
   12.5137   -5.6988   20.5739 H   0  0  0  0  0  0  0  0  0  0  0  0
   12.2608   -4.0005   20.8958 H   0  0  0  0  0  0  0  0  0  0  0  0
   14.6194   -5.0239   19.2370 H   0  0  0  0  0  0  0  0  0  0  0  0
   13.9552   -3.3823   19.2434 H   0  0  0  0  0  0  0  0  0  0  0  0
   13.0313   -4.6767   18.5302 H   0  0  0  0  0  0  0  0  0  0  0  0
   13.7656   -7.2074   21.8651 H   0  0  0  0  0  0  0  0  0  0  0  0
   11.2760   -7.3580   24.5229 H   0  0  0  0  0  0  0  0  0  0  0  0
   10.8996   -8.2823   23.0679 H   0  0  0  0  0  0  0  0  0  0  0  0
   10.1263   -8.9585   25.6080 H   0  0  0  0  0  0  0  0  0  0  0  0
   10.3830  -12.6178   27.0165 H   0  0  0  0  0  0  0  0  0  0  0  0
    6.3288  -11.9850   26.3289 H   0  0  0  0  0  0  0  0  0  0  0  0
    7.6158  -10.4932   24.7153 H   0  0  0  0  0  0  0  0  0  0  0  0
   13.2044  -10.4585   23.2939 H   0  0  0  0  0  0  0  0  0  0  0  0
   12.6850   -9.6063   21.8492 H   0  0  0  0  0  0  0  0  0  0  0  0
   15.1450  -10.5634   22.1156 H   0  0  0  0  0  0  0  0  0  0  0  0
   14.8486   -9.1036   21.1998 H   0  0  0  0  0  0  0  0  0  0  0  0
   16.7766   -9.1717   23.0104 H   0  0  0  0  0  0  0  0  0  0  0  0
   15.8465   -7.7116   22.7808 H   0  0  0  0  0  0  0  0  0  0  0  0
   16.0295   -8.1895   25.1801 H   0  0  0  0  0  0  0  0  0  0  0  0
   15.4419   -9.8208   24.9365 H   0  0  0  0  0  0  0  0  0  0  0  0
   13.9175   -7.3314   25.2962 H   0  0  0  0  0  0  0  0  0  0  0  0
   13.4738   -8.9914   25.6043 H   0  0  0  0  0  0  0  0  0  0  0  0
  1  2  1  0
  2  3  1  0
  3  4  1  0
  4  5  1  0
  3  6  1  0
  6  7  2  0
  6  8  1  0
  8  9  1  0
  9 10  1  0
 10 11  1  0
 11 12  1  0
 12 13  2  0
 12 14  1  0
 14 15  2  0
 15 16  1  0
 16 17  2  0
 17 18  1  0
  9 19  1  0
 19 20  1  0
 20 21  1  0
 21 22  1  0
 22 23  1  0
 23  9  1  0
 18 14  1  0
  1 24  1  0
  1 25  1  0
  1 26  1  0
  2 27  1  0
  2 28  1  0
  3 29  1  0
  4 30  1  0
  4 31  1  0
  5 32  1  0
  5 33  1  0
  5 34  1  0
  8 35  1  0
 10 36  1  0
 10 37  1  0
 11 38  1  0
 15 39  1  0
 17 40  1  0
 18 41  1  0
 19 42  1  0
 19 43  1  0
 20 44  1  0
 20 45  1  0
 21 46  1  0
 21 47  1  0
 22 48  1  0
 22 49  1  0
 23 50  1  0
 23 51  1  0
M  END
>  <Energy>  (128) 
10.304963010417353

>  <compound_id>  (128) 
23876

>  <target_id>  (128) 
1

>  <reference_id>  (128) 
35

>  <inspiration_ids>  (128) 
[27, 35]

>  <energy_score>  (128) 
-7.864946712334586

>  <distance_score>  (128) 
13.93904903146662

>  <path>  (128) 
/opt/xchem-fragalysis-2/maxwin/BulkDock/SCRATCH/511022/C23876-P35/C23876-P35.minimised.mol

>  <scratch_subdir>  (128) 
/opt/xchem-fragalysis-2/maxwin/BulkDock/SCRATCH/511022/C23876-P35

>  <fragmenstein_runtime>  (128) 
31.491453886032104

>  <fragmenstein_outcome>  (128) 
too moved

>  <fragmenstein_mode>  (128) 
expansion

>  <fragmenstein_error>  (128) 


$$$$
C76311-P27
     RDKit          3D

 54 55  0  0  0  0  0  0  0  0999 V2000
   15.9503   -6.6016   21.1694 C   0  0  0  0  0  0  0  0  0  0  0  0
   15.0261   -6.8026   22.3730 C   0  0  0  0  0  0  0  0  0  0  0  0
   13.5031   -6.8622   22.0902 C   0  0  0  0  0  0  0  0  0  0  0  0
   13.1627   -5.8239   20.9676 C   0  0  0  0  0  0  0  0  0  0  0  0
   13.2327   -4.3673   21.4091 C   0  0  0  0  0  0  0  0  0  0  0  0
   12.9770   -8.3860   21.8613 C   0  0  0  0  0  0  0  0  0  0  0  0
   13.7088   -9.1622   21.3130 O   0  0  0  0  0  0  0  0  0  0  0  0
   11.5898   -8.5355   22.3057 N   0  0  0  0  0  0  0  0  0  0  0  0
   10.6056   -9.6750   22.1286 C   0  0  0  0  0  0  0  0  0  0  0  0
    9.9084   -9.6944   20.7410 C   0  0  0  0  0  0  0  0  0  0  0  0
    8.5205  -10.4078   20.6084 C   0  0  0  0  0  0  0  0  0  0  0  0
    7.4302   -9.9524   21.6101 C   0  0  0  0  0  0  0  0  0  0  0  0
    6.1850  -10.7954   21.6761 N   0  0  0  0  0  0  0  0  0  0  0  0
    4.8356  -10.5300   22.3344 C   0  0  0  0  0  0  0  0  0  0  0  0
    4.4179   -9.5393   22.8874 O   0  0  0  0  0  0  0  0  0  0  0  0
    3.6098  -11.9555   22.4829 C   0  0  0  0  0  0  0  0  0  0  0  0
    3.2833  -13.4076   23.7510 C   0  0  0  0  0  0  0  0  0  0  0  0
    4.2070  -14.8136   24.6858 C   0  0  0  0  0  0  0  0  0  0  0  0
    4.1385  -15.0182   26.1119 C   0  0  0  0  0  0  0  0  0  0  0  0
    3.5752  -16.6234   26.5327 N   0  0  0  0  0  0  0  0  0  0  0  0
    3.7094  -17.4846   25.1720 C   0  0  0  0  0  0  0  0  0  0  0  0
    4.3242  -16.3901   24.1395 N   0  0  0  0  0  0  0  0  0  0  0  0
    8.1217  -10.1162   23.0115 C   0  0  0  0  0  0  0  0  0  0  0  0
    9.5655   -9.6098   23.2675 C   0  0  0  0  0  0  0  0  0  0  0  0
   15.7328   -7.3229   20.3760 H   0  0  0  0  0  0  0  0  0  0  0  0
   16.9895   -6.7556   21.4802 H   0  0  0  0  0  0  0  0  0  0  0  0
   15.8920   -5.5876   20.7647 H   0  0  0  0  0  0  0  0  0  0  0  0
   15.3287   -7.7191   22.8945 H   0  0  0  0  0  0  0  0  0  0  0  0
   15.2186   -5.9820   23.0762 H   0  0  0  0  0  0  0  0  0  0  0  0
   13.0118   -6.5378   23.0184 H   0  0  0  0  0  0  0  0  0  0  0  0
   13.8425   -5.9160   20.1203 H   0  0  0  0  0  0  0  0  0  0  0  0
   12.1841   -6.0056   20.5438 H   0  0  0  0  0  0  0  0  0  0  0  0
   12.9747   -3.7060   20.5774 H   0  0  0  0  0  0  0  0  0  0  0  0
   12.5442   -4.1730   22.2352 H   0  0  0  0  0  0  0  0  0  0  0  0
   14.2387   -4.0978   21.7431 H   0  0  0  0  0  0  0  0  0  0  0  0
   11.3147   -7.7106   22.8029 H   0  0  0  0  0  0  0  0  0  0  0  0
   11.1892  -10.5985   22.2234 H   0  0  0  0  0  0  0  0  0  0  0  0
   10.5907  -10.1794   20.0332 H   0  0  0  0  0  0  0  0  0  0  0  0
    9.7863   -8.6758   20.3810 H   0  0  0  0  0  0  0  0  0  0  0  0
    8.1451  -10.2680   19.5875 H   0  0  0  0  0  0  0  0  0  0  0  0
    8.6828  -11.4880   20.7239 H   0  0  0  0  0  0  0  0  0  0  0  0
    7.0960   -8.9303   21.4310 H   0  0  0  0  0  0  0  0  0  0  0  0
    6.1678  -11.7051   21.2333 H   0  0  0  0  0  0  0  0  0  0  0  0
    3.6149  -12.3984   21.4736 H   0  0  0  0  0  0  0  0  0  0  0  0
    2.6608  -11.4004   22.5432 H   0  0  0  0  0  0  0  0  0  0  0  0
    2.4653  -13.0413   24.3586 H   0  0  0  0  0  0  0  0  0  0  0  0
    2.8954  -14.1822   23.0995 H   0  0  0  0  0  0  0  0  0  0  0  0
    3.8989  -14.4162   26.9710 H   0  0  0  0  0  0  0  0  0  0  0  0
    3.2395  -16.8999   27.4549 H   0  0  0  0  0  0  0  0  0  0  0  0
    3.3254  -18.4860   25.0299 H   0  0  0  0  0  0  0  0  0  0  0  0
    7.4651   -9.6804   23.7769 H   0  0  0  0  0  0  0  0  0  0  0  0
    8.1378  -11.1921   23.2411 H   0  0  0  0  0  0  0  0  0  0  0  0
    9.9700  -10.1783   24.1175 H   0  0  0  0  0  0  0  0  0  0  0  0
    9.4976   -8.5937   23.6716 H   0  0  0  0  0  0  0  0  0  0  0  0
  1  2  1  0
  2  3  1  0
  3  4  1  0
  4  5  1  0
  3  6  1  0
  6  7  2  0
  6  8  1  0
  8  9  1  0
  9 10  1  0
 10 11  1  0
 11 12  1  0
 12 13  1  0
 13 14  1  0
 14 15  2  0
 14 16  1  0
 16 17  1  0
 17 18  1  0
 18 19  2  0
 19 20  1  0
 20 21  1  0
 21 22  2  0
 12 23  1  0
 23 24  1  0
 24  9  1  0
 22 18  1  0
  1 25  1  0
  1 26  1  0
  1 27  1  0
  2 28  1  0
  2 29  1  0
  3 30  1  0
  4 31  1  0
  4 32  1  0
  5 33  1  0
  5 34  1  0
  5 35  1  0
  8 36  1  0
  9 37  1  0
 10 38  1  0
 10 39  1  0
 11 40  1  0
 11 41  1  0
 12 42  1  0
 13 43  1  0
 16 44  1  0
 16 45  1  0
 17 46  1  0
 17 47  1  0
 19 48  1  0
 20 49  1  0
 21 50  1  0
 23 51  1  0
 23 52  1  0
 24 53  1  0
 24 54  1  0
M  END
>  <Energy>  (129) 
295.23942905988656

>  <compound_id>  (129) 
76311

>  <target_id>  (129) 
1

>  <reference_id>  (129) 
27

>  <inspiration_ids>  (129) 
[27, 35]

>  <energy_score>  (129) 
284.9722156940019

>  <distance_score>  (129) 
12.410350042531533

>  <path>  (129) 
/opt/xchem-fragalysis-2/maxwin/BulkDock/SCRATCH/511022/C76311-P27/C76311-P27.minimised.mol

>  <scratch_subdir>  (129) 
/opt/xchem-fragalysis-2/maxwin/BulkDock/SCRATCH/511022/C76311-P27

>  <fragmenstein_runtime>  (129) 
36.62004041671753

>  <fragmenstein_outcome>  (129) 
too moved

>  <fragmenstein_mode>  (129) 
expansion

>  <fragmenstein_error>  (129) 


$$$$
C76311-P35
     RDKit          3D

 54 55  0  0  0  0  0  0  0  0999 V2000
   13.7201   -6.3522   24.9859 C   0  0  0  0  0  0  0  0  0  0  0  0
   13.3017   -7.8174   24.7993 C   0  0  0  0  0  0  0  0  0  0  0  0
   12.2078   -8.0351   23.7545 C   0  0  0  0  0  0  0  0  0  0  0  0
   12.7435   -7.8789   22.2931 C   0  0  0  0  0  0  0  0  0  0  0  0
   13.3760   -6.5304   21.9245 C   0  0  0  0  0  0  0  0  0  0  0  0
   11.3410   -9.3757   23.9049 C   0  0  0  0  0  0  0  0  0  0  0  0
   11.4984  -10.2454   23.0944 O   0  0  0  0  0  0  0  0  0  0  0  0
   10.3938   -9.2652   25.0056 N   0  0  0  0  0  0  0  0  0  0  0  0
    9.2651  -10.1407   25.4104 C   0  0  0  0  0  0  0  0  0  0  0  0
    9.5386  -11.4015   26.2421 C   0  0  0  0  0  0  0  0  0  0  0  0
    8.3650  -12.4841   26.2454 C   0  0  0  0  0  0  0  0  0  0  0  0
    6.9085  -11.9873   25.9539 C   0  0  0  0  0  0  0  0  0  0  0  0
    5.6375  -13.1125   26.1429 N   0  0  0  0  0  0  0  0  0  0  0  0
    4.6831  -13.4989   27.4746 C   0  0  0  0  0  0  0  0  0  0  0  0
    4.7562  -12.9082   28.4963 O   0  0  0  0  0  0  0  0  0  0  0  0
    3.4545  -15.1527   27.3839 C   0  0  0  0  0  0  0  0  0  0  0  0
    1.9071  -16.5594   27.5631 C   0  0  0  0  0  0  0  0  0  0  0  0
    0.1346  -17.4843   27.1751 C   0  0  0  0  0  0  0  0  0  0  0  0
   -1.3925  -17.0168   27.2182 C   0  0  0  0  0  0  0  0  0  0  0  0
   -2.3476  -17.7922   26.6603 N   0  0  0  0  0  0  0  0  0  0  0  0
   -1.6060  -18.8606   26.5952 C   0  0  0  0  0  0  0  0  0  0  0  0
   -0.3052  -18.4990   26.3771 N   0  0  0  0  0  0  0  0  0  0  0  0
    7.0540  -11.0752   24.6753 C   0  0  0  0  0  0  0  0  0  0  0  0
    8.4395  -10.5787   24.2177 C   0  0  0  0  0  0  0  0  0  0  0  0
   14.2209   -6.2431   25.9546 H   0  0  0  0  0  0  0  0  0  0  0  0
   12.8576   -5.6792   24.9832 H   0  0  0  0  0  0  0  0  0  0  0  0
   14.4417   -6.0286   24.2348 H   0  0  0  0  0  0  0  0  0  0  0  0
   12.9375   -8.1832   25.7674 H   0  0  0  0  0  0  0  0  0  0  0  0
   14.1831   -8.4254   24.5634 H   0  0  0  0  0  0  0  0  0  0  0  0
   11.4840   -7.2372   23.9174 H   0  0  0  0  0  0  0  0  0  0  0  0
   13.4667   -8.6768   22.0822 H   0  0  0  0  0  0  0  0  0  0  0  0
   11.8977   -8.0630   21.6236 H   0  0  0  0  0  0  0  0  0  0  0  0
   13.2124   -6.2796   20.8778 H   0  0  0  0  0  0  0  0  0  0  0  0
   12.9635   -5.7011   22.5045 H   0  0  0  0  0  0  0  0  0  0  0  0
   14.4581   -6.5633   22.0841 H   0  0  0  0  0  0  0  0  0  0  0  0
   10.4911   -8.3520   25.4361 H   0  0  0  0  0  0  0  0  0  0  0  0
    8.6446   -9.4769   26.0276 H   0  0  0  0  0  0  0  0  0  0  0  0
   10.4543  -11.8957   25.8939 H   0  0  0  0  0  0  0  0  0  0  0  0
    9.7353  -11.1008   27.2787 H   0  0  0  0  0  0  0  0  0  0  0  0
    8.3902  -13.0064   27.2053 H   0  0  0  0  0  0  0  0  0  0  0  0
    8.6206  -13.2144   25.4720 H   0  0  0  0  0  0  0  0  0  0  0  0
    6.6719  -11.3131   26.7888 H   0  0  0  0  0  0  0  0  0  0  0  0
    5.3500  -13.6775   25.3806 H   0  0  0  0  0  0  0  0  0  0  0  0
    4.0056  -15.7889   28.0241 H   0  0  0  0  0  0  0  0  0  0  0  0
    2.6272  -14.4806   27.5679 H   0  0  0  0  0  0  0  0  0  0  0  0
    2.4956  -17.3513   27.0918 H   0  0  0  0  0  0  0  0  0  0  0  0
    1.6172  -16.6194   28.5997 H   0  0  0  0  0  0  0  0  0  0  0  0
   -1.7644  -15.9901   27.4461 H   0  0  0  0  0  0  0  0  0  0  0  0
   -3.3526  -17.6702   26.6660 H   0  0  0  0  0  0  0  0  0  0  0  0
   -2.0666  -19.8380   26.5657 H   0  0  0  0  0  0  0  0  0  0  0  0
    6.6411  -11.5492   23.8026 H   0  0  0  0  0  0  0  0  0  0  0  0
    6.5061  -10.1476   24.8668 H   0  0  0  0  0  0  0  0  0  0  0  0
    8.2985   -9.7500   23.5131 H   0  0  0  0  0  0  0  0  0  0  0  0
    8.9547  -11.3712   23.6597 H   0  0  0  0  0  0  0  0  0  0  0  0
  1  2  1  0
  2  3  1  0
  3  4  1  0
  4  5  1  0
  3  6  1  0
  6  7  2  0
  6  8  1  0
  8  9  1  0
  9 10  1  0
 10 11  1  0
 11 12  1  0
 12 13  1  0
 13 14  1  0
 14 15  2  0
 14 16  1  0
 16 17  1  0
 17 18  1  0
 18 19  2  0
 19 20  1  0
 20 21  1  0
 21 22  2  0
 12 23  1  0
 23 24  1  0
 24  9  1  0
 22 18  1  0
  1 25  1  0
  1 26  1  0
  1 27  1  0
  2 28  1  0
  2 29  1  0
  3 30  1  0
  4 31  1  0
  4 32  1  0
  5 33  1  0
  5 34  1  0
  5 35  1  0
  8 36  1  0
  9 37  1  0
 10 38  1  0
 10 39  1  0
 11 40  1  0
 11 41  1  0
 12 42  1  0
 13 43  1  0
 16 44  1  0
 16 45  1  0
 17 46  1  0
 17 47  1  0
 19 48  1  0
 20 49  1  0
 21 50  1  0
 23 51  1  0
 23 52  1  0
 24 53  1  0
 24 54  1  0
M  END
>  <Energy>  (130) 
469.62931644980654

>  <compound_id>  (130) 
76311

>  <target_id>  (130) 
1

>  <reference_id>  (130) 
35

>  <inspiration_ids>  (130) 
[27, 35]

>  <energy_score>  (130) 
459.3621030839322

>  <distance_score>  (130) 
11.576391136229152

>  <path>  (130) 
/opt/xchem-fragalysis-2/maxwin/BulkDock/SCRATCH/511022/C76311-P35/C76311-P35.minimised.mol

>  <scratch_subdir>  (130) 
/opt/xchem-fragalysis-2/maxwin/BulkDock/SCRATCH/511022/C76311-P35

>  <fragmenstein_runtime>  (130) 
35.48055338859558

>  <fragmenstein_outcome>  (130) 
too moved

>  <fragmenstein_mode>  (130) 
expansion

>  <fragmenstein_error>  (130) 


$$$$
C23879-P27
     RDKit          3D

 51 52  0  0  0  0  0  0  0  0999 V2000
   13.2715   -4.2728   17.2258 C   0  0  0  0  0  0  0  0  0  0  0  0
   13.0500   -5.9424   16.8700 C   0  0  0  0  0  0  0  0  0  0  0  0
   11.9718   -7.4738   16.0968 C   0  0  0  0  0  0  0  0  0  0  0  0
   11.3518   -5.5641   16.0609 C   0  0  0  0  0  0  0  0  0  0  0  0
   10.8167   -4.2679   14.9674 C   0  0  0  0  0  0  0  0  0  0  0  0
   11.1656   -9.5791   16.4015 C   0  0  0  0  0  0  0  0  0  0  0  0
   11.9698  -10.4930   16.3508 O   0  0  0  0  0  0  0  0  0  0  0  0
    9.3274   -9.9813   16.9272 N   0  0  0  0  0  0  0  0  0  0  0  0
    8.4482  -11.6325   17.5887 C   0  0  0  0  0  0  0  0  0  0  0  0
    6.5441  -12.1462   17.7843 C   0  0  0  0  0  0  0  0  0  0  0  0
    5.2811  -13.0986   19.0217 C   0  0  0  0  0  0  0  0  0  0  0  0
    4.5760  -13.0446   20.9117 C   0  0  0  0  0  0  0  0  0  0  0  0
    3.3047  -14.4526   21.8878 N   0  0  0  0  0  0  0  0  0  0  0  0
    3.6300  -15.8661   23.3263 C   0  0  0  0  0  0  0  0  0  0  0  0
    4.7416  -15.7957   23.7675 O   0  0  0  0  0  0  0  0  0  0  0  0
    2.6375  -17.6823   24.1821 C   0  0  0  0  0  0  0  0  0  0  0  0
    0.8406  -18.9128   24.2962 C   0  0  0  0  0  0  0  0  0  0  0  0
   -0.5317  -19.2611   23.1140 C   0  0  0  0  0  0  0  0  0  0  0  0
   -0.5341  -18.9391   21.7560 N   0  0  0  0  0  0  0  0  0  0  0  0
    0.3568  -19.8386   21.6374 C   0  0  0  0  0  0  0  0  0  0  0  0
    0.4493  -20.1622   22.9815 N   0  0  0  0  0  0  0  0  0  0  0  0
    6.4223  -12.2412   20.6082 C   0  0  0  0  0  0  0  0  0  0  0  0
    7.7095  -11.3694   19.3841 C   0  0  0  0  0  0  0  0  0  0  0  0
   14.1860   -4.1958   17.8308 H   0  0  0  0  0  0  0  0  0  0  0  0
   12.4573   -3.8519   17.8100 H   0  0  0  0  0  0  0  0  0  0  0  0
   13.4672   -3.6602   16.3357 H   0  0  0  0  0  0  0  0  0  0  0  0
   13.8252   -5.7992   16.0965 H   0  0  0  0  0  0  0  0  0  0  0  0
   13.1712   -6.0025   17.9752 H   0  0  0  0  0  0  0  0  0  0  0  0
   12.7882   -7.6946   15.4585 H   0  0  0  0  0  0  0  0  0  0  0  0
   11.0643   -5.1503   17.0428 H   0  0  0  0  0  0  0  0  0  0  0  0
   12.1781   -4.9052   15.7950 H   0  0  0  0  0  0  0  0  0  0  0  0
   11.0804   -4.4048   13.9166 H   0  0  0  0  0  0  0  0  0  0  0  0
    9.7725   -3.9853   15.0525 H   0  0  0  0  0  0  0  0  0  0  0  0
   11.3250   -3.3379   15.2788 H   0  0  0  0  0  0  0  0  0  0  0  0
    8.7930   -9.1732   16.8379 H   0  0  0  0  0  0  0  0  0  0  0  0
    9.1707  -12.4454   17.6919 H   0  0  0  0  0  0  0  0  0  0  0  0
    6.4186  -12.7573   16.8779 H   0  0  0  0  0  0  0  0  0  0  0  0
    6.0076  -11.2023   17.5922 H   0  0  0  0  0  0  0  0  0  0  0  0
    4.3444  -13.0482   18.4477 H   0  0  0  0  0  0  0  0  0  0  0  0
    5.6718  -14.1209   18.9171 H   0  0  0  0  0  0  0  0  0  0  0  0
    3.8811  -12.1915   20.8471 H   0  0  0  0  0  0  0  0  0  0  0  0
    2.3787  -14.4916   21.6209 H   0  0  0  0  0  0  0  0  0  0  0  0
    3.1797  -18.5308   23.7363 H   0  0  0  0  0  0  0  0  0  0  0  0
    3.0045  -17.8744   25.2251 H   0  0  0  0  0  0  0  0  0  0  0  0
   -1.5866  -19.3750   23.4775 H   0  0  0  0  0  0  0  0  0  0  0  0
    0.7108  -20.3363   20.7506 H   0  0  0  0  0  0  0  0  0  0  0  0
    0.3801  -21.1069   23.3315 H   0  0  0  0  0  0  0  0  0  0  0  0
    6.4869  -11.4441   21.3630 H   0  0  0  0  0  0  0  0  0  0  0  0
    7.1194  -13.0349   20.8077 H   0  0  0  0  0  0  0  0  0  0  0  0
    8.6215  -11.3330   19.9976 H   0  0  0  0  0  0  0  0  0  0  0  0
    7.3254  -10.3368   19.3417 H   0  0  0  0  0  0  0  0  0  0  0  0
  1  2  1  0
  2  3  1  0
  3  4  1  0
  4  5  1  0
  3  6  1  0
  6  7  2  0
  6  8  1  0
  8  9  1  0
  9 10  1  0
 10 11  1  0
 11 12  1  0
 12 13  1  0
 13 14  1  0
 14 15  2  0
 14 16  1  0
 16 17  1  0
 17 18  2  0
 18 19  1  0
 19 20  2  0
 20 21  1  0
 12 22  1  0
 22 23  1  0
 23  9  1  0
 21 17  1  0
  1 24  1  0
  1 25  1  0
  1 26  1  0
  2 27  1  0
  2 28  1  0
  3 29  1  0
  4 30  1  0
  4 31  1  0
  5 32  1  0
  5 33  1  0
  5 34  1  0
  8 35  1  0
  9 36  1  0
 10 37  1  0
 10 38  1  0
 11 39  1  0
 11 40  1  0
 12 41  1  0
 13 42  1  0
 16 43  1  0
 16 44  1  0
 18 45  1  0
 20 46  1  0
 21 47  1  0
 22 48  1  0
 22 49  1  0
 23 50  1  0
 23 51  1  0
M  END
>  <Energy>  (131) 
2152.8951789535026

>  <compound_id>  (131) 
23879

>  <target_id>  (131) 
1

>  <reference_id>  (131) 
27

>  <inspiration_ids>  (131) 
[27, 35]

>  <energy_score>  (131) 
2112.5404548519255

>  <distance_score>  (131) 
11.371832929306645

>  <path>  (131) 
/opt/xchem-fragalysis-2/maxwin/BulkDock/SCRATCH/511022/C23879-P27/C23879-P27.minimised.mol

>  <scratch_subdir>  (131) 
/opt/xchem-fragalysis-2/maxwin/BulkDock/SCRATCH/511022/C23879-P27

>  <fragmenstein_runtime>  (131) 
26.538527011871338

>  <fragmenstein_outcome>  (131) 
too moved

>  <fragmenstein_mode>  (131) 
expansion

>  <fragmenstein_error>  (131) 


$$$$
C23879-P35
     RDKit          3D

 51 52  0  0  0  0  0  0  0  0999 V2000
   13.3457  -12.0999   16.7177 C   0  0  0  0  0  0  0  0  0  0  0  0
   11.9596  -11.5582   16.3917 C   0  0  0  0  0  0  0  0  0  0  0  0
   11.0632  -12.6394   15.7481 C   0  0  0  0  0  0  0  0  0  0  0  0
    9.9379  -11.9873   14.9105 C   0  0  0  0  0  0  0  0  0  0  0  0
    9.2332  -10.8025   15.5478 C   0  0  0  0  0  0  0  0  0  0  0  0
   10.5344  -13.6917   16.8002 C   0  0  0  0  0  0  0  0  0  0  0  0
   10.5575  -13.4310   17.9702 O   0  0  0  0  0  0  0  0  0  0  0  0
   10.1259  -14.8976   16.1094 N   0  0  0  0  0  0  0  0  0  0  0  0
    9.7071  -16.2042   16.6224 C   0  0  0  0  0  0  0  0  0  0  0  0
   10.8916  -17.1087   16.9694 C   0  0  0  0  0  0  0  0  0  0  0  0
   10.4483  -18.5780   17.2318 C   0  0  0  0  0  0  0  0  0  0  0  0
    8.9451  -18.7654   17.5901 C   0  0  0  0  0  0  0  0  0  0  0  0
    8.6224  -20.1185   18.1707 N   0  0  0  0  0  0  0  0  0  0  0  0
    7.7695  -21.2165   17.6577 C   0  0  0  0  0  0  0  0  0  0  0  0
    7.1447  -21.3087   16.6324 O   0  0  0  0  0  0  0  0  0  0  0  0
    7.6671  -22.4529   18.6685 C   0  0  0  0  0  0  0  0  0  0  0  0
    6.2552  -23.0374   19.0327 C   0  0  0  0  0  0  0  0  0  0  0  0
    5.8557  -23.8965   20.0601 C   0  0  0  0  0  0  0  0  0  0  0  0
    4.5123  -24.1839   20.0164 N   0  0  0  0  0  0  0  0  0  0  0  0
    4.0629  -23.5239   18.9795 C   0  0  0  0  0  0  0  0  0  0  0  0
    5.0749  -22.8625   18.3314 N   0  0  0  0  0  0  0  0  0  0  0  0
    8.5442  -17.5641   18.4831 C   0  0  0  0  0  0  0  0  0  0  0  0
    8.7404  -16.1704   17.8157 C   0  0  0  0  0  0  0  0  0  0  0  0
   13.9659  -11.4016   17.2795 H   0  0  0  0  0  0  0  0  0  0  0  0
   13.2761  -13.0116   17.3204 H   0  0  0  0  0  0  0  0  0  0  0  0
   13.8820  -12.3536   15.7970 H   0  0  0  0  0  0  0  0  0  0  0  0
   12.0823  -10.7169   15.7045 H   0  0  0  0  0  0  0  0  0  0  0  0
   11.4799  -11.1931   17.3055 H   0  0  0  0  0  0  0  0  0  0  0  0
   11.6901  -13.2062   15.0442 H   0  0  0  0  0  0  0  0  0  0  0  0
    9.1842  -12.7430   14.6598 H   0  0  0  0  0  0  0  0  0  0  0  0
   10.3642  -11.6523   13.9562 H   0  0  0  0  0  0  0  0  0  0  0  0
    8.8723  -11.0507   16.5502 H   0  0  0  0  0  0  0  0  0  0  0  0
    8.3738  -10.5099   14.9361 H   0  0  0  0  0  0  0  0  0  0  0  0
    9.9014   -9.9468   15.6076 H   0  0  0  0  0  0  0  0  0  0  0  0
   10.3187  -14.7932   15.1193 H   0  0  0  0  0  0  0  0  0  0  0  0
    9.1788  -16.6559   15.7725 H   0  0  0  0  0  0  0  0  0  0  0  0
   11.4029  -16.7209   17.8603 H   0  0  0  0  0  0  0  0  0  0  0  0
   11.6364  -17.1005   16.1642 H   0  0  0  0  0  0  0  0  0  0  0  0
   10.6638  -19.1820   16.3412 H   0  0  0  0  0  0  0  0  0  0  0  0
   11.0762  -18.9925   18.0307 H   0  0  0  0  0  0  0  0  0  0  0  0
    8.3606  -18.7123   16.6635 H   0  0  0  0  0  0  0  0  0  0  0  0
    9.0631  -20.4157   19.0366 H   0  0  0  0  0  0  0  0  0  0  0  0
    8.2349  -23.2667   18.1986 H   0  0  0  0  0  0  0  0  0  0  0  0
    8.1895  -22.2066   19.5953 H   0  0  0  0  0  0  0  0  0  0  0  0
    6.4788  -24.3223   20.8377 H   0  0  0  0  0  0  0  0  0  0  0  0
    3.0390  -23.4977   18.6320 H   0  0  0  0  0  0  0  0  0  0  0  0
    4.9702  -22.3322   17.4759 H   0  0  0  0  0  0  0  0  0  0  0  0
    9.1505  -17.6074   19.3909 H   0  0  0  0  0  0  0  0  0  0  0  0
    7.5101  -17.6548   18.8254 H   0  0  0  0  0  0  0  0  0  0  0  0
    9.0785  -15.4677   18.5851 H   0  0  0  0  0  0  0  0  0  0  0  0
    7.7681  -15.7964   17.4711 H   0  0  0  0  0  0  0  0  0  0  0  0
  1  2  1  0
  2  3  1  0
  3  4  1  0
  4  5  1  0
  3  6  1  0
  6  7  2  0
  6  8  1  0
  8  9  1  0
  9 10  1  0
 10 11  1  0
 11 12  1  0
 12 13  1  0
 13 14  1  0
 14 15  2  0
 14 16  1  0
 16 17  1  0
 17 18  2  0
 18 19  1  0
 19 20  2  0
 20 21  1  0
 12 22  1  0
 22 23  1  0
 23  9  1  0
 21 17  1  0
  1 24  1  0
  1 25  1  0
  1 26  1  0
  2 27  1  0
  2 28  1  0
  3 29  1  0
  4 30  1  0
  4 31  1  0
  5 32  1  0
  5 33  1  0
  5 34  1  0
  8 35  1  0
  9 36  1  0
 10 37  1  0
 10 38  1  0
 11 39  1  0
 11 40  1  0
 12 41  1  0
 13 42  1  0
 16 43  1  0
 16 44  1  0
 18 45  1  0
 20 46  1  0
 21 47  1  0
 22 48  1  0
 22 49  1  0
 23 50  1  0
 23 51  1  0
M  END
>  <Energy>  (132) 
24.19135369145836

>  <compound_id>  (132) 
23879

>  <target_id>  (132) 
1

>  <reference_id>  (132) 
35

>  <inspiration_ids>  (132) 
[27, 35]

>  <energy_score>  (132) 
-16.1633704101464

>  <distance_score>  (132) 
14.949115085543959

>  <path>  (132) 
/opt/xchem-fragalysis-2/maxwin/BulkDock/SCRATCH/511022/C23879-P35/C23879-P35.minimised.mol

>  <scratch_subdir>  (132) 
/opt/xchem-fragalysis-2/maxwin/BulkDock/SCRATCH/511022/C23879-P35

>  <fragmenstein_runtime>  (132) 
50.20577335357666

>  <fragmenstein_outcome>  (132) 
too moved

>  <fragmenstein_mode>  (132) 
expansion

>  <fragmenstein_error>  (132) 


$$$$
C76314-P65
     RDKit          3D

 42 44  0  0  0  0  0  0  0  0999 V2000
   10.2272    2.0511   10.4486 C   0  0  0  0  0  0  0  0  0  0  0  0
   10.2308    1.6674   11.9221 C   0  0  0  0  0  0  0  0  0  0  0  0
   11.0327    2.2263   12.6236 O   0  0  0  0  0  0  0  0  0  0  0  0
    9.1665    0.7011   12.2569 N   0  0  0  0  0  0  0  0  0  0  0  0
    8.8301    0.0697   13.4942 C   0  0  0  0  0  0  0  0  0  0  0  0
    9.6669    0.5271   14.5321 C   0  0  0  0  0  0  0  0  0  0  0  0
    9.6981   -0.1426   15.6920 C   0  0  0  0  0  0  0  0  0  0  0  0
    8.9281   -1.2756   15.7728 C   0  0  0  0  0  0  0  0  0  0  0  0
    8.0119   -1.8022   14.8307 C   0  0  0  0  0  0  0  0  0  0  0  0
    7.8253   -1.1590   13.6180 C   0  0  0  0  0  0  0  0  0  0  0  0
    6.5276   -1.6521   12.4907 C   0  0  0  0  0  0  0  0  0  0  0  0
    5.0978   -2.8261   12.0854 N   0  0  0  0  0  0  0  0  0  0  0  0
    3.5320   -2.3427   11.2186 C   0  0  0  0  0  0  0  0  0  0  0  0
    1.7987   -1.3796   11.3298 C   0  0  0  0  0  0  0  0  0  0  0  0
    1.0964   -0.7998   12.3846 N   0  0  0  0  0  0  0  0  0  0  0  0
   -0.5359   -0.7005   12.1359 N   0  0  0  0  0  0  0  0  0  0  0  0
   -0.8489   -1.0244   10.8723 C   0  0  0  0  0  0  0  0  0  0  0  0
    0.5769   -1.5324   10.4865 N   0  0  0  0  0  0  0  0  0  0  0  0
    0.4051   -1.5694    9.0798 C   0  0  0  0  0  0  0  0  0  0  0  0
   -1.5596   -1.7861    8.2736 C   0  0  0  0  0  0  0  0  0  0  0  0
   -2.4016   -0.6518    8.1514 N   0  0  0  0  0  0  0  0  0  0  0  0
   -2.4459   -1.0004    9.5019 C   0  0  0  0  0  0  0  0  0  0  0  0
   10.1608    3.1416   10.3777 H   0  0  0  0  0  0  0  0  0  0  0  0
    9.3958    1.6392    9.8763 H   0  0  0  0  0  0  0  0  0  0  0  0
   11.1655    1.7221    9.9943 H   0  0  0  0  0  0  0  0  0  0  0  0
    8.7391    0.3760   11.4121 H   0  0  0  0  0  0  0  0  0  0  0  0
   10.3089    1.3933   14.4581 H   0  0  0  0  0  0  0  0  0  0  0  0
   10.3164    0.2034   16.5028 H   0  0  0  0  0  0  0  0  0  0  0  0
    9.0877   -1.7235   16.7048 H   0  0  0  0  0  0  0  0  0  0  0  0
    7.4534   -2.6865   15.0658 H   0  0  0  0  0  0  0  0  0  0  0  0
    6.0210   -0.7210   12.4145 H   0  0  0  0  0  0  0  0  0  0  0  0
    6.2722   -2.0927   13.4643 H   0  0  0  0  0  0  0  0  0  0  0  0
    5.3883   -3.6621   11.6386 H   0  0  0  0  0  0  0  0  0  0  0  0
    3.5640   -2.8301   10.2429 H   0  0  0  0  0  0  0  0  0  0  0  0
    3.2811   -3.0975   12.0239 H   0  0  0  0  0  0  0  0  0  0  0  0
    1.1476   -2.0998    8.4059 H   0  0  0  0  0  0  0  0  0  0  0  0
    1.0155   -0.6452    8.8805 H   0  0  0  0  0  0  0  0  0  0  0  0
   -2.2027   -2.6807    8.4166 H   0  0  0  0  0  0  0  0  0  0  0  0
   -1.5608   -1.9367    7.1449 H   0  0  0  0  0  0  0  0  0  0  0  0
   -3.2843   -0.8838    7.6955 H   0  0  0  0  0  0  0  0  0  0  0  0
   -3.2277   -0.2702    9.7050 H   0  0  0  0  0  0  0  0  0  0  0  0
   -3.1755   -1.8568    9.4795 H   0  0  0  0  0  0  0  0  0  0  0  0
  1  2  1  0
  2  3  2  0
  2  4  1  0
  4  5  1  0
  5  6  2  0
  6  7  1  0
  7  8  2  0
  8  9  1  0
  9 10  2  0
 10 11  1  0
 11 12  1  0
 12 13  1  0
 13 14  1  0
 14 15  2  0
 15 16  1  0
 16 17  2  0
 17 18  1  0
 18 19  1  0
 19 20  1  0
 20 21  1  0
 21 22  1  0
 10  5  1  0
 18 14  1  0
 22 17  1  0
  1 23  1  0
  1 24  1  0
  1 25  1  0
  4 26  1  0
  6 27  1  0
  7 28  1  0
  8 29  1  0
  9 30  1  0
 11 31  1  0
 11 32  1  0
 12 33  1  0
 13 34  1  0
 13 35  1  0
 19 36  1  0
 19 37  1  0
 20 38  1  0
 20 39  1  0
 21 40  1  0
 22 41  1  0
 22 42  1  0
M  END
>  <Energy>  (133) 
737.04096053068133

>  <compound_id>  (133) 
76314

>  <target_id>  (133) 
1

>  <reference_id>  (133) 
65

>  <inspiration_ids>  (133) 
[65, 27]

>  <energy_score>  (133) 
669.9450192086581

>  <distance_score>  (133) 
8.266085342853783

>  <path>  (133) 
/opt/xchem-fragalysis-2/maxwin/BulkDock/SCRATCH/511022/C76314-P65/C76314-P65.minimised.mol

>  <scratch_subdir>  (133) 
/opt/xchem-fragalysis-2/maxwin/BulkDock/SCRATCH/511022/C76314-P65

>  <fragmenstein_runtime>  (133) 
17.518106937408447

>  <fragmenstein_outcome>  (133) 
too moved

>  <fragmenstein_mode>  (133) 
expansion

>  <fragmenstein_error>  (133) 


$$$$
C76314-P27
     RDKit          3D

 42 44  0  0  0  0  0  0  0  0999 V2000
    7.4753   -2.8440   14.9404 C   0  0  0  0  0  0  0  0  0  0  0  0
    6.2331   -3.8180   15.3040 C   0  0  0  0  0  0  0  0  0  0  0  0
    5.1257   -3.2764   15.2205 O   0  0  0  0  0  0  0  0  0  0  0  0
    6.6960   -5.5819   15.8818 N   0  0  0  0  0  0  0  0  0  0  0  0
    5.8377   -6.6802   16.4597 C   0  0  0  0  0  0  0  0  0  0  0  0
    5.8682   -6.6315   17.8801 C   0  0  0  0  0  0  0  0  0  0  0  0
    5.8160   -7.7539   18.7104 C   0  0  0  0  0  0  0  0  0  0  0  0
    5.7536   -9.0108   18.1547 C   0  0  0  0  0  0  0  0  0  0  0  0
    5.6767   -9.1377   16.7717 C   0  0  0  0  0  0  0  0  0  0  0  0
    5.6924   -8.0252   15.8783 C   0  0  0  0  0  0  0  0  0  0  0  0
    5.5672   -8.5283   14.3842 C   0  0  0  0  0  0  0  0  0  0  0  0
    4.4102   -9.4913   14.0807 N   0  0  0  0  0  0  0  0  0  0  0  0
    3.9768   -9.6832   12.6141 C   0  0  0  0  0  0  0  0  0  0  0  0
    2.4450   -9.9668   12.3606 C   0  0  0  0  0  0  0  0  0  0  0  0
    1.5797  -10.4540   13.2409 N   0  0  0  0  0  0  0  0  0  0  0  0
    0.2865  -10.3139   12.7559 N   0  0  0  0  0  0  0  0  0  0  0  0
    0.3555   -9.7566   11.5708 C   0  0  0  0  0  0  0  0  0  0  0  0
    1.6858   -9.5823   11.2592 N   0  0  0  0  0  0  0  0  0  0  0  0
    2.0633   -8.8818   10.0574 C   0  0  0  0  0  0  0  0  0  0  0  0
    0.9344   -8.8982    9.0057 C   0  0  0  0  0  0  0  0  0  0  0  0
   -0.3576   -8.4778    9.5558 N   0  0  0  0  0  0  0  0  0  0  0  0
   -0.7667   -9.3610   10.6611 C   0  0  0  0  0  0  0  0  0  0  0  0
    7.5029   -1.9868   15.6130 H   0  0  0  0  0  0  0  0  0  0  0  0
    7.2709   -2.4088   13.9593 H   0  0  0  0  0  0  0  0  0  0  0  0
    8.4519   -3.3104   14.9159 H   0  0  0  0  0  0  0  0  0  0  0  0
    7.6857   -5.7557   15.7585 H   0  0  0  0  0  0  0  0  0  0  0  0
    6.0426   -5.7091   18.4138 H   0  0  0  0  0  0  0  0  0  0  0  0
    5.8726   -7.6291   19.7888 H   0  0  0  0  0  0  0  0  0  0  0  0
    5.7314   -9.8953   18.7849 H   0  0  0  0  0  0  0  0  0  0  0  0
    5.5944  -10.1483   16.3658 H   0  0  0  0  0  0  0  0  0  0  0  0
    5.4941   -7.7225   13.6804 H   0  0  0  0  0  0  0  0  0  0  0  0
    6.4991   -9.0567   14.1467 H   0  0  0  0  0  0  0  0  0  0  0  0
    3.5912   -9.2013   14.6175 H   0  0  0  0  0  0  0  0  0  0  0  0
    4.2717   -8.8061   12.0260 H   0  0  0  0  0  0  0  0  0  0  0  0
    4.5336  -10.5436   12.2274 H   0  0  0  0  0  0  0  0  0  0  0  0
    2.2567   -7.8682   10.4010 H   0  0  0  0  0  0  0  0  0  0  0  0
    2.9785   -9.3330    9.6642 H   0  0  0  0  0  0  0  0  0  0  0  0
    1.1899   -8.2499    8.1627 H   0  0  0  0  0  0  0  0  0  0  0  0
    0.8332   -9.9092    8.5898 H   0  0  0  0  0  0  0  0  0  0  0  0
   -0.3034   -7.5222    9.8971 H   0  0  0  0  0  0  0  0  0  0  0  0
   -1.2094  -10.2707   10.2388 H   0  0  0  0  0  0  0  0  0  0  0  0
   -1.5525   -8.8640   11.2402 H   0  0  0  0  0  0  0  0  0  0  0  0
  1  2  1  0
  2  3  2  0
  2  4  1  0
  4  5  1  0
  5  6  2  0
  6  7  1  0
  7  8  2  0
  8  9  1  0
  9 10  2  0
 10 11  1  0
 11 12  1  0
 12 13  1  0
 13 14  1  0
 14 15  2  0
 15 16  1  0
 16 17  2  0
 17 18  1  0
 18 19  1  0
 19 20  1  0
 20 21  1  0
 21 22  1  0
 10  5  1  0
 18 14  1  0
 22 17  1  0
  1 23  1  0
  1 24  1  0
  1 25  1  0
  4 26  1  0
  6 27  1  0
  7 28  1  0
  8 29  1  0
  9 30  1  0
 11 31  1  0
 11 32  1  0
 12 33  1  0
 13 34  1  0
 13 35  1  0
 19 36  1  0
 19 37  1  0
 20 38  1  0
 20 39  1  0
 21 40  1  0
 22 41  1  0
 22 42  1  0
M  END
>  <Energy>  (134) 
175.1047017859193

>  <compound_id>  (134) 
76314

>  <target_id>  (134) 
1

>  <reference_id>  (134) 
27

>  <inspiration_ids>  (134) 
[65, 27]

>  <energy_score>  (134) 
108.00876046390891

>  <distance_score>  (134) 
10.69584895458034

>  <path>  (134) 
/opt/xchem-fragalysis-2/maxwin/BulkDock/SCRATCH/511022/C76314-P27/C76314-P27.minimised.mol

>  <scratch_subdir>  (134) 
/opt/xchem-fragalysis-2/maxwin/BulkDock/SCRATCH/511022/C76314-P27

>  <fragmenstein_runtime>  (134) 
10.691478967666626

>  <fragmenstein_outcome>  (134) 
too moved

>  <fragmenstein_mode>  (134) 
expansion

>  <fragmenstein_error>  (134) 


$$$$
C76315-P65
     RDKit          3D

 42 44  0  0  0  0  0  0  0  0999 V2000
   10.5989   -1.4329   15.5381 C   0  0  0  0  0  0  0  0  0  0  0  0
    9.1176   -1.1099   15.4172 C   0  0  0  0  0  0  0  0  0  0  0  0
    8.6035   -0.3352   16.1727 O   0  0  0  0  0  0  0  0  0  0  0  0
    8.5875   -1.7957   14.2721 N   0  0  0  0  0  0  0  0  0  0  0  0
    7.2930   -1.6944   13.6086 C   0  0  0  0  0  0  0  0  0  0  0  0
    6.4701   -1.9060   12.3263 C   0  0  0  0  0  0  0  0  0  0  0  0
    5.1018   -3.2375   12.1128 C   0  0  0  0  0  0  0  0  0  0  0  0
    3.7227   -3.2416   13.0669 C   0  0  0  0  0  0  0  0  0  0  0  0
    2.9125   -2.3540   11.4711 C   0  0  0  0  0  0  0  0  0  0  0  0
    3.7351   -2.0043   10.7949 O   0  0  0  0  0  0  0  0  0  0  0  0
    1.1806   -2.0821   11.1693 N   0  0  0  0  0  0  0  0  0  0  0  0
    0.3416   -1.3025    9.5830 C   0  0  0  0  0  0  0  0  0  0  0  0
   -1.4915   -1.6316    8.6705 C   0  0  0  0  0  0  0  0  0  0  0  0
   -2.2178   -1.0733    9.6014 N   0  0  0  0  0  0  0  0  0  0  0  0
   -3.5123   -0.5510    9.4586 C   0  0  0  0  0  0  0  0  0  0  0  0
   -3.8286   -0.1187   10.7109 N   0  0  0  0  0  0  0  0  0  0  0  0
   -2.2406    0.1642   11.7741 N   0  0  0  0  0  0  0  0  0  0  0  0
   -1.1703   -0.6754   11.1858 C   0  0  0  0  0  0  0  0  0  0  0  0
    0.5655   -0.9370   11.6995 C   0  0  0  0  0  0  0  0  0  0  0  0
    5.1417   -2.8078   14.5165 C   0  0  0  0  0  0  0  0  0  0  0  0
    6.5410   -2.2930   14.6344 C   0  0  0  0  0  0  0  0  0  0  0  0
   10.8515   -1.5768   16.5858 H   0  0  0  0  0  0  0  0  0  0  0  0
   11.1786   -0.6015   15.1286 H   0  0  0  0  0  0  0  0  0  0  0  0
   10.8795   -2.3540   15.0198 H   0  0  0  0  0  0  0  0  0  0  0  0
    9.3285   -2.3052   13.8239 H   0  0  0  0  0  0  0  0  0  0  0  0
    7.5406   -0.6866   13.3254 H   0  0  0  0  0  0  0  0  0  0  0  0
    7.1970   -1.9689   11.5188 H   0  0  0  0  0  0  0  0  0  0  0  0
    5.9866   -0.9449   12.2233 H   0  0  0  0  0  0  0  0  0  0  0  0
    5.4009   -4.2472   12.1196 H   0  0  0  0  0  0  0  0  0  0  0  0
    4.7225   -3.5424   11.1676 H   0  0  0  0  0  0  0  0  0  0  0  0
    3.3007   -4.2528   13.1583 H   0  0  0  0  0  0  0  0  0  0  0  0
    0.8626   -1.8863    8.8140 H   0  0  0  0  0  0  0  0  0  0  0  0
    1.0922   -0.6143    9.0854 H   0  0  0  0  0  0  0  0  0  0  0  0
   -1.9188   -1.1307    7.7539 H   0  0  0  0  0  0  0  0  0  0  0  0
   -2.0731   -2.5387    8.5225 H   0  0  0  0  0  0  0  0  0  0  0  0
   -4.1488   -0.6537    8.5926 H   0  0  0  0  0  0  0  0  0  0  0  0
    1.2491   -0.2114   12.1836 H   0  0  0  0  0  0  0  0  0  0  0  0
    0.2344   -1.3431   12.6789 H   0  0  0  0  0  0  0  0  0  0  0  0
    4.8695   -2.2280   15.3572 H   0  0  0  0  0  0  0  0  0  0  0  0
    5.0366   -3.5757   15.2915 H   0  0  0  0  0  0  0  0  0  0  0  0
    7.1157   -3.0776   15.0743 H   0  0  0  0  0  0  0  0  0  0  0  0
    6.6930   -1.5649   15.4262 H   0  0  0  0  0  0  0  0  0  0  0  0
  1  2  1  0
  2  3  2  0
  2  4  1  0
  4  5  1  0
  5  6  1  0
  6  7  1  0
  7  8  1  0
  8  9  1  0
  9 10  2  0
  9 11  1  0
 11 12  1  0
 12 13  1  0
 13 14  1  0
 14 15  1  0
 15 16  2  0
 16 17  1  0
 17 18  2  0
 18 19  1  0
  8 20  1  0
 20 21  1  0
 21  5  1  0
 19 11  1  0
 18 14  1  0
  1 22  1  0
  1 23  1  0
  1 24  1  0
  4 25  1  0
  5 26  1  0
  6 27  1  0
  6 28  1  0
  7 29  1  0
  7 30  1  0
  8 31  1  0
 12 32  1  0
 12 33  1  0
 13 34  1  0
 13 35  1  0
 15 36  1  0
 19 37  1  0
 19 38  1  0
 20 39  1  0
 20 40  1  0
 21 41  1  0
 21 42  1  0
M  END
>  <Energy>  (135) 
898.31954918570398

>  <compound_id>  (135) 
76315

>  <target_id>  (135) 
1

>  <reference_id>  (135) 
65

>  <inspiration_ids>  (135) 
[65, 27]

>  <energy_score>  (135) 
882.9918684337455

>  <distance_score>  (135) 
7.846006886853128

>  <path>  (135) 
/opt/xchem-fragalysis-2/maxwin/BulkDock/SCRATCH/511022/C76315-P65/C76315-P65.minimised.mol

>  <scratch_subdir>  (135) 
/opt/xchem-fragalysis-2/maxwin/BulkDock/SCRATCH/511022/C76315-P65

>  <fragmenstein_runtime>  (135) 
12.309702634811401

>  <fragmenstein_outcome>  (135) 
too moved

>  <fragmenstein_mode>  (135) 
expansion

>  <fragmenstein_error>  (135) 


$$$$
C76315-P27
     RDKit          3D

 42 44  0  0  0  0  0  0  0  0999 V2000
    9.0312   -0.4793   15.8106 C   0  0  0  0  0  0  0  0  0  0  0  0
    8.5771   -1.7248   15.0784 C   0  0  0  0  0  0  0  0  0  0  0  0
    9.3919   -2.5191   14.7221 O   0  0  0  0  0  0  0  0  0  0  0  0
    7.1591   -1.6693   14.8553 N   0  0  0  0  0  0  0  0  0  0  0  0
    6.2549   -2.5388   14.0159 C   0  0  0  0  0  0  0  0  0  0  0  0
    6.0013   -2.2379   12.5270 C   0  0  0  0  0  0  0  0  0  0  0  0
    4.5723   -3.4765   11.8310 C   0  0  0  0  0  0  0  0  0  0  0  0
    2.9173   -3.4808   10.8567 C   0  0  0  0  0  0  0  0  0  0  0  0
    1.9226   -3.4787    8.8845 C   0  0  0  0  0  0  0  0  0  0  0  0
    2.2623   -4.2865    8.0603 O   0  0  0  0  0  0  0  0  0  0  0  0
    0.6774   -2.1054    8.4889 N   0  0  0  0  0  0  0  0  0  0  0  0
   -0.2375   -1.5223    6.7924 C   0  0  0  0  0  0  0  0  0  0  0  0
   -2.2182   -0.7987    7.1565 C   0  0  0  0  0  0  0  0  0  0  0  0
   -3.4033   -1.2282    7.9537 N   0  0  0  0  0  0  0  0  0  0  0  0
   -4.6949   -1.4328    7.6218 C   0  0  0  0  0  0  0  0  0  0  0  0
   -4.8169   -2.7208    7.3592 N   0  0  0  0  0  0  0  0  0  0  0  0
   -3.6142   -3.3284    7.7586 N   0  0  0  0  0  0  0  0  0  0  0  0
   -2.9136   -2.3882    8.3865 C   0  0  0  0  0  0  0  0  0  0  0  0
   -1.4068   -1.9688    8.6040 C   0  0  0  0  0  0  0  0  0  0  0  0
    3.2229   -3.4610   12.9404 C   0  0  0  0  0  0  0  0  0  0  0  0
    4.7167   -3.0375   14.3815 C   0  0  0  0  0  0  0  0  0  0  0  0
    8.3471   -0.1854   16.6077 H   0  0  0  0  0  0  0  0  0  0  0  0
    9.1005    0.3387   15.0898 H   0  0  0  0  0  0  0  0  0  0  0  0
   10.0363   -0.6368   16.2076 H   0  0  0  0  0  0  0  0  0  0  0  0
    6.7819   -0.9117   15.3717 H   0  0  0  0  0  0  0  0  0  0  0  0
    6.9217   -3.3127   14.1447 H   0  0  0  0  0  0  0  0  0  0  0  0
    6.9260   -2.1976   11.9161 H   0  0  0  0  0  0  0  0  0  0  0  0
    5.8067   -1.1632   12.3528 H   0  0  0  0  0  0  0  0  0  0  0  0
    5.2943   -3.8581   11.2698 H   0  0  0  0  0  0  0  0  0  0  0  0
    4.5795   -4.5706   12.0492 H   0  0  0  0  0  0  0  0  0  0  0  0
    2.7188   -4.5691   10.9104 H   0  0  0  0  0  0  0  0  0  0  0  0
    0.4795   -2.2025    6.3772 H   0  0  0  0  0  0  0  0  0  0  0  0
    0.1148   -0.9715    5.9633 H   0  0  0  0  0  0  0  0  0  0  0  0
   -2.0250    0.0816    7.7824 H   0  0  0  0  0  0  0  0  0  0  0  0
   -2.7840   -0.6021    6.2088 H   0  0  0  0  0  0  0  0  0  0  0  0
   -5.4387   -0.6640    7.4702 H   0  0  0  0  0  0  0  0  0  0  0  0
   -1.5682   -0.9828    9.1083 H   0  0  0  0  0  0  0  0  0  0  0  0
   -1.6721   -2.2862    7.6124 H   0  0  0  0  0  0  0  0  0  0  0  0
    2.3197   -3.1250   13.4518 H   0  0  0  0  0  0  0  0  0  0  0  0
    3.0159   -4.5415   13.1543 H   0  0  0  0  0  0  0  0  0  0  0  0
    4.7077   -2.2318   15.0606 H   0  0  0  0  0  0  0  0  0  0  0  0
    4.6182   -3.6985   15.2608 H   0  0  0  0  0  0  0  0  0  0  0  0
  1  2  1  0
  2  3  2  0
  2  4  1  0
  4  5  1  0
  5  6  1  0
  6  7  1  0
  7  8  1  0
  8  9  1  0
  9 10  2  0
  9 11  1  0
 11 12  1  0
 12 13  1  0
 13 14  1  0
 14 15  1  0
 15 16  2  0
 16 17  1  0
 17 18  2  0
 18 19  1  0
  8 20  1  0
 20 21  1  0
 21  5  1  0
 19 11  1  0
 18 14  1  0
  1 22  1  0
  1 23  1  0
  1 24  1  0
  4 25  1  0
  5 26  1  0
  6 27  1  0
  6 28  1  0
  7 29  1  0
  7 30  1  0
  8 31  1  0
 12 32  1  0
 12 33  1  0
 13 34  1  0
 13 35  1  0
 15 36  1  0
 19 37  1  0
 19 38  1  0
 20 39  1  0
 20 40  1  0
 21 41  1  0
 21 42  1  0
M  END
>  <Energy>  (136) 
1436.8011260177975

>  <compound_id>  (136) 
76315

>  <target_id>  (136) 
1

>  <reference_id>  (136) 
27

>  <inspiration_ids>  (136) 
[65, 27]

>  <energy_score>  (136) 
1421.4734452658347

>  <distance_score>  (136) 
8.075125628877615

>  <path>  (136) 
/opt/xchem-fragalysis-2/maxwin/BulkDock/SCRATCH/511022/C76315-P27/C76315-P27.minimised.mol

>  <scratch_subdir>  (136) 
/opt/xchem-fragalysis-2/maxwin/BulkDock/SCRATCH/511022/C76315-P27

>  <fragmenstein_runtime>  (136) 
11.882732391357422

>  <fragmenstein_outcome>  (136) 
too moved

>  <fragmenstein_mode>  (136) 
expansion

>  <fragmenstein_error>  (136) 


$$$$
C76316-P65
     RDKit          3D

 38 40  0  0  0  0  0  0  0  0999 V2000
    9.2900   -1.5281   15.4073 C   0  0  0  0  0  0  0  0  0  0  0  0
    8.4519   -0.9226   14.3318 C   0  0  0  0  0  0  0  0  0  0  0  0
    8.7571    0.1715   13.9457 O   0  0  0  0  0  0  0  0  0  0  0  0
    7.4212   -1.8511   13.8585 N   0  0  0  0  0  0  0  0  0  0  0  0
    6.5205   -1.7764   12.7213 C   0  0  0  0  0  0  0  0  0  0  0  0
    5.4882   -2.8311   12.3363 C   0  0  0  0  0  0  0  0  0  0  0  0
    4.0142   -2.9961   11.6713 C   0  0  0  0  0  0  0  0  0  0  0  0
    3.1893   -1.7388   11.1410 C   0  0  0  0  0  0  0  0  0  0  0  0
    1.3769   -1.5306   10.6815 N   0  0  0  0  0  0  0  0  0  0  0  0
    0.4961   -1.7092    9.0572 C   0  0  0  0  0  0  0  0  0  0  0  0
    1.1568   -1.8916    8.0383 O   0  0  0  0  0  0  0  0  0  0  0  0
   -1.4606   -1.9458    8.6468 N   0  0  0  0  0  0  0  0  0  0  0  0
   -2.4523   -1.1731    8.2416 C   0  0  0  0  0  0  0  0  0  0  0  0
   -3.7990   -2.0310    7.3263 C   0  0  0  0  0  0  0  0  0  0  0  0
   -4.7456   -0.9839    7.3566 N   0  0  0  0  0  0  0  0  0  0  0  0
   -5.8635   -0.6169    6.7267 C   0  0  0  0  0  0  0  0  0  0  0  0
   -5.8853    0.7065    6.6846 N   0  0  0  0  0  0  0  0  0  0  0  0
   -4.6872    1.1880    7.2230 N   0  0  0  0  0  0  0  0  0  0  0  0
   -4.0385    0.1271    7.6282 C   0  0  0  0  0  0  0  0  0  0  0  0
   -2.2672   -0.1787    8.1056 C   0  0  0  0  0  0  0  0  0  0  0  0
    4.4818   -0.4488   11.2510 C   0  0  0  0  0  0  0  0  0  0  0  0
    6.0877   -0.7602   12.0754 C   0  0  0  0  0  0  0  0  0  0  0  0
   10.3080   -1.1290   15.3437 H   0  0  0  0  0  0  0  0  0  0  0  0
    9.3629   -2.6038   15.2577 H   0  0  0  0  0  0  0  0  0  0  0  0
    8.8721   -1.2440   16.3663 H   0  0  0  0  0  0  0  0  0  0  0  0
    7.5001   -2.7151   14.3638 H   0  0  0  0  0  0  0  0  0  0  0  0
    5.5977   -2.9568   13.4373 H   0  0  0  0  0  0  0  0  0  0  0  0
    3.6266   -3.9711   11.9759 H   0  0  0  0  0  0  0  0  0  0  0  0
    0.6854   -1.4718   11.4126 H   0  0  0  0  0  0  0  0  0  0  0  0
   -2.0710   -1.7151    7.2331 H   0  0  0  0  0  0  0  0  0  0  0  0
   -3.0879   -1.5609    9.1046 H   0  0  0  0  0  0  0  0  0  0  0  0
   -4.0995   -2.9742    7.7513 H   0  0  0  0  0  0  0  0  0  0  0  0
   -3.5513   -2.1819    6.2658 H   0  0  0  0  0  0  0  0  0  0  0  0
   -6.6005   -1.2850    6.3048 H   0  0  0  0  0  0  0  0  0  0  0  0
   -2.6054    0.5842    8.8587 H   0  0  0  0  0  0  0  0  0  0  0  0
   -2.0749    0.1967    7.0260 H   0  0  0  0  0  0  0  0  0  0  0  0
    4.1935    0.5891   10.9495 H   0  0  0  0  0  0  0  0  0  0  0  0
    6.9950   -0.5479   11.4373 H   0  0  0  0  0  0  0  0  0  0  0  0
  1  2  1  0
  2  3  2  0
  2  4  1  0
  4  5  1  0
  5  6  2  0
  6  7  1  0
  7  8  2  0
  8  9  1  0
  9 10  1  0
 10 11  2  0
 10 12  1  0
 12 13  1  0
 13 14  1  0
 14 15  1  0
 15 16  1  0
 16 17  2  0
 17 18  1  0
 18 19  2  0
 19 20  1  0
  8 21  1  0
 21 22  2  0
 22  5  1  0
 20 12  1  0
 19 15  1  0
  1 23  1  0
  1 24  1  0
  1 25  1  0
  4 26  1  0
  6 27  1  0
  7 28  1  0
  9 29  1  0
 13 30  1  0
 13 31  1  0
 14 32  1  0
 14 33  1  0
 16 34  1  0
 20 35  1  0
 20 36  1  0
 21 37  1  0
 22 38  1  0
M  END
>  <Energy>  (137) 
1245.9265632869594

>  <compound_id>  (137) 
76316

>  <target_id>  (137) 
1

>  <reference_id>  (137) 
65

>  <inspiration_ids>  (137) 
[65, 27]

>  <energy_score>  (137) 
1265.6501405275883

>  <distance_score>  (137) 
8.223686158854699

>  <path>  (137) 
/opt/xchem-fragalysis-2/maxwin/BulkDock/SCRATCH/511022/C76316-P65/C76316-P65.minimised.mol

>  <scratch_subdir>  (137) 
/opt/xchem-fragalysis-2/maxwin/BulkDock/SCRATCH/511022/C76316-P65

>  <fragmenstein_runtime>  (137) 
8.431666374206543

>  <fragmenstein_outcome>  (137) 
too moved

>  <fragmenstein_mode>  (137) 
expansion

>  <fragmenstein_error>  (137) 


$$$$
C76316-P27
     RDKit          3D

 38 40  0  0  0  0  0  0  0  0999 V2000
    5.7819   -3.1412   14.7508 C   0  0  0  0  0  0  0  0  0  0  0  0
    4.2281   -3.8867   15.3460 C   0  0  0  0  0  0  0  0  0  0  0  0
    4.1123   -4.0285   16.5426 O   0  0  0  0  0  0  0  0  0  0  0  0
    3.0688   -4.1576   14.0777 N   0  0  0  0  0  0  0  0  0  0  0  0
    1.6620   -4.5006   14.1554 C   0  0  0  0  0  0  0  0  0  0  0  0
    1.2844   -3.1617   14.1980 C   0  0  0  0  0  0  0  0  0  0  0  0
    0.1015   -1.9919   14.2896 C   0  0  0  0  0  0  0  0  0  0  0  0
   -1.0869   -2.4785   14.1040 C   0  0  0  0  0  0  0  0  0  0  0  0
   -1.9815   -1.9439   13.1959 N   0  0  0  0  0  0  0  0  0  0  0  0
   -2.2898   -0.2709   12.6979 C   0  0  0  0  0  0  0  0  0  0  0  0
   -1.6885    0.7063   13.0890 O   0  0  0  0  0  0  0  0  0  0  0  0
   -3.8600   -0.1670   11.5298 N   0  0  0  0  0  0  0  0  0  0  0  0
   -3.2103   -0.1964    9.5779 C   0  0  0  0  0  0  0  0  0  0  0  0
   -3.7020   -1.0545    7.9453 C   0  0  0  0  0  0  0  0  0  0  0  0
   -4.9801   -0.4726    7.6234 N   0  0  0  0  0  0  0  0  0  0  0  0
   -6.1521   -0.7869    7.0511 C   0  0  0  0  0  0  0  0  0  0  0  0
   -7.0785    0.0172    7.5396 N   0  0  0  0  0  0  0  0  0  0  0  0
   -6.5385    0.6776    8.6287 N   0  0  0  0  0  0  0  0  0  0  0  0
   -5.2833    0.3146    8.6706 C   0  0  0  0  0  0  0  0  0  0  0  0
   -4.1109   -0.1655    9.8713 C   0  0  0  0  0  0  0  0  0  0  0  0
   -1.0282   -4.0468   13.9806 C   0  0  0  0  0  0  0  0  0  0  0  0
    0.3515   -5.0202   13.9027 C   0  0  0  0  0  0  0  0  0  0  0  0
    6.7203   -3.3655   15.2224 H   0  0  0  0  0  0  0  0  0  0  0  0
    5.9191   -2.9570   13.6964 H   0  0  0  0  0  0  0  0  0  0  0  0
    5.7532   -2.1259   14.9746 H   0  0  0  0  0  0  0  0  0  0  0  0
    3.4554   -3.8647   13.1844 H   0  0  0  0  0  0  0  0  0  0  0  0
    2.0229   -2.5685   13.6580 H   0  0  0  0  0  0  0  0  0  0  0  0
    0.3621   -0.9553   14.0765 H   0  0  0  0  0  0  0  0  0  0  0  0
   -2.6271   -2.5076   12.8207 H   0  0  0  0  0  0  0  0  0  0  0  0
   -2.8882    0.9131    9.1912 H   0  0  0  0  0  0  0  0  0  0  0  0
   -2.1258   -0.5370    9.4666 H   0  0  0  0  0  0  0  0  0  0  0  0
   -2.9592   -0.7362    7.2288 H   0  0  0  0  0  0  0  0  0  0  0  0
   -3.7273   -2.1390    8.0288 H   0  0  0  0  0  0  0  0  0  0  0  0
   -6.3407   -1.5682    6.3300 H   0  0  0  0  0  0  0  0  0  0  0  0
   -5.1821   -0.3373   10.1481 H   0  0  0  0  0  0  0  0  0  0  0  0
   -4.3525   -1.4054    9.7383 H   0  0  0  0  0  0  0  0  0  0  0  0
   -1.9447   -4.5744   13.7026 H   0  0  0  0  0  0  0  0  0  0  0  0
    0.0791   -6.0145   13.5739 H   0  0  0  0  0  0  0  0  0  0  0  0
  1  2  1  0
  2  3  2  0
  2  4  1  0
  4  5  1  0
  5  6  2  0
  6  7  1  0
  7  8  2  0
  8  9  1  0
  9 10  1  0
 10 11  2  0
 10 12  1  0
 12 13  1  0
 13 14  1  0
 14 15  1  0
 15 16  1  0
 16 17  2  0
 17 18  1  0
 18 19  2  0
 19 20  1  0
  8 21  1  0
 21 22  2  0
 22  5  1  0
 20 12  1  0
 19 15  1  0
  1 23  1  0
  1 24  1  0
  1 25  1  0
  4 26  1  0
  6 27  1  0
  7 28  1  0
  9 29  1  0
 13 30  1  0
 13 31  1  0
 14 32  1  0
 14 33  1  0
 16 34  1  0
 20 35  1  0
 20 36  1  0
 21 37  1  0
 22 38  1  0
M  END
>  <Energy>  (138) 
1096.8724750950973

>  <compound_id>  (138) 
76316

>  <target_id>  (138) 
1

>  <reference_id>  (138) 
27

>  <inspiration_ids>  (138) 
[65, 27]

>  <energy_score>  (138) 
1116.5960523357317

>  <distance_score>  (138) 
10.383825536927542

>  <path>  (138) 
/opt/xchem-fragalysis-2/maxwin/BulkDock/SCRATCH/511022/C76316-P27/C76316-P27.minimised.mol

>  <scratch_subdir>  (138) 
/opt/xchem-fragalysis-2/maxwin/BulkDock/SCRATCH/511022/C76316-P27

>  <fragmenstein_runtime>  (138) 
18.70102620124817

>  <fragmenstein_outcome>  (138) 
too moved

>  <fragmenstein_mode>  (138) 
expansion

>  <fragmenstein_error>  (138) 


$$$$
C76317-P65
     RDKit          3D

 38 40  0  0  0  0  0  0  0  0999 V2000
    4.2114   -3.8574   11.7719 C   0  0  0  0  0  0  0  0  0  0  0  0
    2.9866   -3.3752   12.5049 C   0  0  0  0  0  0  0  0  0  0  0  0
    2.5545   -3.8499   13.5387 O   0  0  0  0  0  0  0  0  0  0  0  0
    2.3034   -2.0818   11.4387 N   0  0  0  0  0  0  0  0  0  0  0  0
    0.7959   -1.2645   11.5430 C   0  0  0  0  0  0  0  0  0  0  0  0
    1.0901   -1.4255   10.2422 C   0  0  0  0  0  0  0  0  0  0  0  0
    0.3867   -1.6190    9.0910 C   0  0  0  0  0  0  0  0  0  0  0  0
   -1.4215   -1.7377    8.5958 C   0  0  0  0  0  0  0  0  0  0  0  0
   -2.0292   -1.2660    9.5297 C   0  0  0  0  0  0  0  0  0  0  0  0
   -3.2877   -0.6983    9.0216 N   0  0  0  0  0  0  0  0  0  0  0  0
   -3.6062   -0.0482    7.6937 C   0  0  0  0  0  0  0  0  0  0  0  0
   -2.9018    0.2199    6.8034 O   0  0  0  0  0  0  0  0  0  0  0  0
   -5.0490    0.0981    7.7821 N   0  0  0  0  0  0  0  0  0  0  0  0
   -5.7419   -1.1969    7.2973 C   0  0  0  0  0  0  0  0  0  0  0  0
   -7.1103   -1.5251    7.9051 C   0  0  0  0  0  0  0  0  0  0  0  0
   -8.0092   -0.4719    7.5869 N   0  0  0  0  0  0  0  0  0  0  0  0
   -9.3398   -0.3371    7.6930 C   0  0  0  0  0  0  0  0  0  0  0  0
   -9.6620    0.8588    7.2450 N   0  0  0  0  0  0  0  0  0  0  0  0
   -8.4929    1.5056    6.8666 N   0  0  0  0  0  0  0  0  0  0  0  0
   -7.5017    0.6784    7.1026 C   0  0  0  0  0  0  0  0  0  0  0  0
   -6.0515    0.7392    6.8132 C   0  0  0  0  0  0  0  0  0  0  0  0
   -0.8080   -1.0476   11.0258 C   0  0  0  0  0  0  0  0  0  0  0  0
    5.0718   -3.2522   11.9858 H   0  0  0  0  0  0  0  0  0  0  0  0
    4.0445   -3.9452   10.7039 H   0  0  0  0  0  0  0  0  0  0  0  0
    4.3157   -4.9163   12.0063 H   0  0  0  0  0  0  0  0  0  0  0  0
    2.8666   -1.9867   10.6260 H   0  0  0  0  0  0  0  0  0  0  0  0
    1.9181   -0.8943    9.8411 H   0  0  0  0  0  0  0  0  0  0  0  0
    1.1594   -1.7960    8.2619 H   0  0  0  0  0  0  0  0  0  0  0  0
   -1.8444   -1.9124    7.5962 H   0  0  0  0  0  0  0  0  0  0  0  0
   -4.1200   -0.7079    9.5983 H   0  0  0  0  0  0  0  0  0  0  0  0
   -5.0838   -2.0044    7.6463 H   0  0  0  0  0  0  0  0  0  0  0  0
   -5.6857   -1.3582    6.2053 H   0  0  0  0  0  0  0  0  0  0  0  0
   -7.0362   -1.5306    8.9844 H   0  0  0  0  0  0  0  0  0  0  0  0
   -7.5088   -2.4718    7.5310 H   0  0  0  0  0  0  0  0  0  0  0  0
  -10.0154   -1.0863    8.0842 H   0  0  0  0  0  0  0  0  0  0  0  0
   -5.7845    1.8034    6.9071 H   0  0  0  0  0  0  0  0  0  0  0  0
   -5.7978    0.5461    5.7582 H   0  0  0  0  0  0  0  0  0  0  0  0
   -1.2608   -0.4599   11.8798 H   0  0  0  0  0  0  0  0  0  0  0  0
  1  2  1  0
  2  3  2  0
  2  4  1  0
  4  5  1  0
  5  6  2  0
  6  7  1  0
  7  8  2  0
  8  9  1  0
  9 10  1  0
 10 11  1  0
 11 12  2  0
 11 13  1  0
 13 14  1  0
 14 15  1  0
 15 16  1  0
 16 17  1  0
 17 18  2  0
 18 19  1  0
 19 20  2  0
 20 21  1  0
  9 22  2  0
 22  5  1  0
 21 13  1  0
 20 16  1  0
  1 23  1  0
  1 24  1  0
  1 25  1  0
  4 26  1  0
  6 27  1  0
  7 28  1  0
  8 29  1  0
 10 30  1  0
 14 31  1  0
 14 32  1  0
 15 33  1  0
 15 34  1  0
 17 35  1  0
 21 36  1  0
 21 37  1  0
 22 38  1  0
M  END
>  <Energy>  (139) 
505.23383869120016

>  <compound_id>  (139) 
76317

>  <target_id>  (139) 
1

>  <reference_id>  (139) 
65

>  <inspiration_ids>  (139) 
[65, 27]

>  <energy_score>  (139) 
521.8567974499692

>  <distance_score>  (139) 
12.055166530963488

>  <path>  (139) 
/opt/xchem-fragalysis-2/maxwin/BulkDock/SCRATCH/511022/C76317-P65/C76317-P65.minimised.mol

>  <scratch_subdir>  (139) 
/opt/xchem-fragalysis-2/maxwin/BulkDock/SCRATCH/511022/C76317-P65

>  <fragmenstein_runtime>  (139) 
11.47925591468811

>  <fragmenstein_outcome>  (139) 
too moved

>  <fragmenstein_mode>  (139) 
expansion

>  <fragmenstein_error>  (139) 


$$$$
C76317-P27
     RDKit          3D

 38 40  0  0  0  0  0  0  0  0999 V2000
    8.3445    2.2728   16.6883 C   0  0  0  0  0  0  0  0  0  0  0  0
    8.7963    0.8962   16.2428 C   0  0  0  0  0  0  0  0  0  0  0  0
    9.9649    0.7495   16.0075 O   0  0  0  0  0  0  0  0  0  0  0  0
    7.6696   -0.0206   16.0834 N   0  0  0  0  0  0  0  0  0  0  0  0
    7.6029   -1.3145   15.5192 C   0  0  0  0  0  0  0  0  0  0  0  0
    8.8240   -1.7371   15.2223 C   0  0  0  0  0  0  0  0  0  0  0  0
    8.5054   -2.7759   14.5143 C   0  0  0  0  0  0  0  0  0  0  0  0
    7.3031   -2.6257   13.6443 C   0  0  0  0  0  0  0  0  0  0  0  0
    5.9640   -3.0802   13.8074 C   0  0  0  0  0  0  0  0  0  0  0  0
    4.8042   -3.0615   12.2664 N   0  0  0  0  0  0  0  0  0  0  0  0
    2.9573   -2.7675   12.0434 C   0  0  0  0  0  0  0  0  0  0  0  0
    2.4247   -2.7239   13.1320 O   0  0  0  0  0  0  0  0  0  0  0  0
    1.5588   -2.1577   10.5619 N   0  0  0  0  0  0  0  0  0  0  0  0
    1.0631   -0.5404    9.8009 C   0  0  0  0  0  0  0  0  0  0  0  0
   -1.1586   -0.3672    9.1088 C   0  0  0  0  0  0  0  0  0  0  0  0
   -2.5870   -0.1455    9.3135 N   0  0  0  0  0  0  0  0  0  0  0  0
   -3.7403   -0.3788    8.6159 C   0  0  0  0  0  0  0  0  0  0  0  0
   -3.7382   -1.5526    8.0600 N   0  0  0  0  0  0  0  0  0  0  0  0
   -2.6560   -2.2003    8.5727 N   0  0  0  0  0  0  0  0  0  0  0  0
   -1.9294   -1.3368    9.3351 C   0  0  0  0  0  0  0  0  0  0  0  0
   -0.2888   -1.4144   10.6865 C   0  0  0  0  0  0  0  0  0  0  0  0
    6.2382   -2.0913   14.7601 C   0  0  0  0  0  0  0  0  0  0  0  0
    7.4951    2.6231   16.0993 H   0  0  0  0  0  0  0  0  0  0  0  0
    8.0932    2.2724   17.7444 H   0  0  0  0  0  0  0  0  0  0  0  0
    9.1612    2.9858   16.5334 H   0  0  0  0  0  0  0  0  0  0  0  0
    6.8324    0.4135   16.4629 H   0  0  0  0  0  0  0  0  0  0  0  0
    9.7664   -1.5249   15.6859 H   0  0  0  0  0  0  0  0  0  0  0  0
    8.8619   -3.7147   14.9165 H   0  0  0  0  0  0  0  0  0  0  0  0
    7.3784   -1.8441   12.8463 H   0  0  0  0  0  0  0  0  0  0  0  0
    5.1562   -3.1975   11.4400 H   0  0  0  0  0  0  0  0  0  0  0  0
    1.7624    0.3252    9.6361 H   0  0  0  0  0  0  0  0  0  0  0  0
    1.5707   -1.0808    8.9825 H   0  0  0  0  0  0  0  0  0  0  0  0
   -1.3237   -0.8104    7.7777 H   0  0  0  0  0  0  0  0  0  0  0  0
   -1.5712    0.6292    8.5533 H   0  0  0  0  0  0  0  0  0  0  0  0
   -4.5547    0.3246    8.5734 H   0  0  0  0  0  0  0  0  0  0  0  0
   -1.0885   -1.1945   11.5611 H   0  0  0  0  0  0  0  0  0  0  0  0
    0.0766   -0.6266   11.4282 H   0  0  0  0  0  0  0  0  0  0  0  0
    5.7501   -1.2677   14.2926 H   0  0  0  0  0  0  0  0  0  0  0  0
  1  2  1  0
  2  3  2  0
  2  4  1  0
  4  5  1  0
  5  6  2  0
  6  7  1  0
  7  8  2  0
  8  9  1  0
  9 10  1  0
 10 11  1  0
 11 12  2  0
 11 13  1  0
 13 14  1  0
 14 15  1  0
 15 16  1  0
 16 17  1  0
 17 18  2  0
 18 19  1  0
 19 20  2  0
 20 21  1  0
  9 22  2  0
 22  5  1  0
 21 13  1  0
 20 16  1  0
  1 23  1  0
  1 24  1  0
  1 25  1  0
  4 26  1  0
  6 27  1  0
  7 28  1  0
  8 29  1  0
 10 30  1  0
 14 31  1  0
 14 32  1  0
 15 33  1  0
 15 34  1  0
 17 35  1  0
 21 36  1  0
 21 37  1  0
 22 38  1  0
M  END
>  <Energy>  (140) 
1671.2792500504625

>  <compound_id>  (140) 
76317

>  <target_id>  (140) 
1

>  <reference_id>  (140) 
27

>  <inspiration_ids>  (140) 
[65, 27]

>  <energy_score>  (140) 
1687.9022088092395

>  <distance_score>  (140) 
7.3900934278837065

>  <path>  (140) 
/opt/xchem-fragalysis-2/maxwin/BulkDock/SCRATCH/511022/C76317-P27/C76317-P27.minimised.mol

>  <scratch_subdir>  (140) 
/opt/xchem-fragalysis-2/maxwin/BulkDock/SCRATCH/511022/C76317-P27

>  <fragmenstein_runtime>  (140) 
12.406880855560303

>  <fragmenstein_outcome>  (140) 
too moved

>  <fragmenstein_mode>  (140) 
expansion

>  <fragmenstein_error>  (140) 


$$$$
C76318-P65
     RDKit          3D

 39 41  0  0  0  0  0  0  0  0999 V2000
   11.1028   -3.3662   15.2420 C   0  0  0  0  0  0  0  0  0  0  0  0
   10.0093   -2.3203   15.3457 C   0  0  0  0  0  0  0  0  0  0  0  0
   10.3344   -1.2184   15.7402 O   0  0  0  0  0  0  0  0  0  0  0  0
    8.6587   -2.8395   14.8198 N   0  0  0  0  0  0  0  0  0  0  0  0
    7.2456   -2.0502   14.5157 C   0  0  0  0  0  0  0  0  0  0  0  0
    7.8701   -0.9509   15.1739 C   0  0  0  0  0  0  0  0  0  0  0  0
    8.6158   -0.1222   14.3362 C   0  0  0  0  0  0  0  0  0  0  0  0
    8.2658   -0.1634   12.9599 C   0  0  0  0  0  0  0  0  0  0  0  0
    7.2279   -1.0223   12.3055 C   0  0  0  0  0  0  0  0  0  0  0  0
    6.4384   -1.9198   12.9968 C   0  0  0  0  0  0  0  0  0  0  0  0
    4.8950   -2.6926   11.8951 C   0  0  0  0  0  0  0  0  0  0  0  0
    2.8954   -2.6652   11.7994 C   0  0  0  0  0  0  0  0  0  0  0  0
    2.4428   -3.5901   12.6287 O   0  0  0  0  0  0  0  0  0  0  0  0
    1.5415   -1.4497   10.8595 N   0  0  0  0  0  0  0  0  0  0  0  0
    0.6100   -1.6460    9.1418 C   0  0  0  0  0  0  0  0  0  0  0  0
   -1.4140   -1.8866    8.4076 C   0  0  0  0  0  0  0  0  0  0  0  0
   -2.2323   -0.8183    8.2601 N   0  0  0  0  0  0  0  0  0  0  0  0
   -3.4255   -0.8044    7.6476 C   0  0  0  0  0  0  0  0  0  0  0  0
   -4.2559   -0.6369    8.6050 N   0  0  0  0  0  0  0  0  0  0  0  0
   -3.4207   -0.4707    9.6726 N   0  0  0  0  0  0  0  0  0  0  0  0
   -2.0914   -1.1636    9.5797 C   0  0  0  0  0  0  0  0  0  0  0  0
   -0.4946   -1.2473   11.0264 C   0  0  0  0  0  0  0  0  0  0  0  0
   11.4855   -3.5999   16.2386 H   0  0  0  0  0  0  0  0  0  0  0  0
   10.7857   -4.2786   14.7589 H   0  0  0  0  0  0  0  0  0  0  0  0
   11.9171   -2.9498   14.6402 H   0  0  0  0  0  0  0  0  0  0  0  0
    8.7233   -3.8026   14.6633 H   0  0  0  0  0  0  0  0  0  0  0  0
    8.0219   -0.8930   16.2411 H   0  0  0  0  0  0  0  0  0  0  0  0
    9.3494    0.5832   14.7121 H   0  0  0  0  0  0  0  0  0  0  0  0
    8.9131    0.4304   12.2987 H   0  0  0  0  0  0  0  0  0  0  0  0
    7.1827   -0.8953   11.2378 H   0  0  0  0  0  0  0  0  0  0  0  0
    5.2875   -3.6119   11.4268 H   0  0  0  0  0  0  0  0  0  0  0  0
    4.5683   -3.2744   12.7050 H   0  0  0  0  0  0  0  0  0  0  0  0
    1.2822   -2.1152    8.3492 H   0  0  0  0  0  0  0  0  0  0  0  0
    1.0391   -0.6568    8.9018 H   0  0  0  0  0  0  0  0  0  0  0  0
   -2.1873   -2.7377    8.5453 H   0  0  0  0  0  0  0  0  0  0  0  0
   -1.4881   -2.0339    7.2411 H   0  0  0  0  0  0  0  0  0  0  0  0
   -3.6158   -0.9248    6.5927 H   0  0  0  0  0  0  0  0  0  0  0  0
   -0.8251   -1.2583   12.0558 H   0  0  0  0  0  0  0  0  0  0  0  0
   -0.7819   -0.2968   11.4006 H   0  0  0  0  0  0  0  0  0  0  0  0
  1  2  1  0
  2  3  2  0
  2  4  1  0
  4  5  1  0
  5  6  2  0
  6  7  1  0
  7  8  2  0
  8  9  1  0
  9 10  2  0
 10 11  1  0
 11 12  1  0
 12 13  2  0
 12 14  1  0
 14 15  1  0
 15 16  1  0
 16 17  1  0
 17 18  1  0
 18 19  2  0
 19 20  1  0
 20 21  2  0
 21 22  1  0
 10  5  1  0
 22 14  1  0
 21 17  1  0
  1 23  1  0
  1 24  1  0
  1 25  1  0
  4 26  1  0
  6 27  1  0
  7 28  1  0
  8 29  1  0
  9 30  1  0
 11 31  1  0
 11 32  1  0
 15 33  1  0
 15 34  1  0
 16 35  1  0
 16 36  1  0
 18 37  1  0
 22 38  1  0
 22 39  1  0
M  END
>  <Energy>  (141) 
1333.5326286601994

>  <compound_id>  (141) 
76318

>  <target_id>  (141) 
1

>  <reference_id>  (141) 
65

>  <inspiration_ids>  (141) 
[65, 27]

>  <energy_score>  (141) 
1299.2456162350538

>  <distance_score>  (141) 
7.247213593238509

>  <path>  (141) 
/opt/xchem-fragalysis-2/maxwin/BulkDock/SCRATCH/511022/C76318-P65/C76318-P65.minimised.mol

>  <scratch_subdir>  (141) 
/opt/xchem-fragalysis-2/maxwin/BulkDock/SCRATCH/511022/C76318-P65

>  <fragmenstein_runtime>  (141) 
7.879726409912109

>  <fragmenstein_outcome>  (141) 
too moved

>  <fragmenstein_mode>  (141) 
expansion

>  <fragmenstein_error>  (141) 


$$$$
C76318-P27
     RDKit          3D

 39 41  0  0  0  0  0  0  0  0999 V2000
    9.2630    0.3218   11.7802 C   0  0  0  0  0  0  0  0  0  0  0  0
    8.5664   -0.1408   13.1325 C   0  0  0  0  0  0  0  0  0  0  0  0
    9.2064    0.2703   14.0966 O   0  0  0  0  0  0  0  0  0  0  0  0
    7.1938   -1.0484   13.0758 N   0  0  0  0  0  0  0  0  0  0  0  0
    6.3722   -1.7111   14.2321 C   0  0  0  0  0  0  0  0  0  0  0  0
    7.4111   -1.2829   15.3998 C   0  0  0  0  0  0  0  0  0  0  0  0
    8.5497   -1.8880   15.2929 C   0  0  0  0  0  0  0  0  0  0  0  0
    8.0115   -3.0471   14.9949 C   0  0  0  0  0  0  0  0  0  0  0  0
    6.3450   -3.2539   14.8649 C   0  0  0  0  0  0  0  0  0  0  0  0
    5.2467   -2.6100   14.4950 C   0  0  0  0  0  0  0  0  0  0  0  0
    3.3917   -2.9571   13.5926 C   0  0  0  0  0  0  0  0  0  0  0  0
    1.4398   -2.0682   13.4346 C   0  0  0  0  0  0  0  0  0  0  0  0
    0.6568   -2.6587   14.1894 O   0  0  0  0  0  0  0  0  0  0  0  0
    0.6748   -0.7519   12.2064 N   0  0  0  0  0  0  0  0  0  0  0  0
    0.1012   -1.2157   10.4083 C   0  0  0  0  0  0  0  0  0  0  0  0
   -1.4799   -1.1221    8.9674 C   0  0  0  0  0  0  0  0  0  0  0  0
   -2.8118   -0.9269    9.1271 N   0  0  0  0  0  0  0  0  0  0  0  0
   -3.8847   -0.7221    8.3843 C   0  0  0  0  0  0  0  0  0  0  0  0
   -4.1907    0.5124    8.5990 N   0  0  0  0  0  0  0  0  0  0  0  0
   -3.1071    1.0281    9.3108 N   0  0  0  0  0  0  0  0  0  0  0  0
   -2.3441    0.0604    9.9631 C   0  0  0  0  0  0  0  0  0  0  0  0
   -1.2499   -0.2549   11.8421 C   0  0  0  0  0  0  0  0  0  0  0  0
    8.6817    0.0800   10.8885 H   0  0  0  0  0  0  0  0  0  0  0  0
    9.5135    1.3876   11.8562 H   0  0  0  0  0  0  0  0  0  0  0  0
   10.2819   -0.0749   11.6818 H   0  0  0  0  0  0  0  0  0  0  0  0
    6.8856   -1.1398   12.1150 H   0  0  0  0  0  0  0  0  0  0  0  0
    7.3608   -0.3264   15.9225 H   0  0  0  0  0  0  0  0  0  0  0  0
    9.5444   -1.6293   15.5831 H   0  0  0  0  0  0  0  0  0  0  0  0
    8.6885   -3.8940   15.0325 H   0  0  0  0  0  0  0  0  0  0  0  0
    6.0642   -4.0817   15.4013 H   0  0  0  0  0  0  0  0  0  0  0  0
    3.6673   -3.2408   12.5405 H   0  0  0  0  0  0  0  0  0  0  0  0
    3.0944   -3.9738   13.9641 H   0  0  0  0  0  0  0  0  0  0  0  0
    0.8752   -1.8896   10.0152 H   0  0  0  0  0  0  0  0  0  0  0  0
    0.8704   -0.5470   10.0216 H   0  0  0  0  0  0  0  0  0  0  0  0
   -1.4951   -0.4824    8.0574 H   0  0  0  0  0  0  0  0  0  0  0  0
   -1.6281   -2.0028    8.3705 H   0  0  0  0  0  0  0  0  0  0  0  0
   -4.3908   -1.4384    7.7589 H   0  0  0  0  0  0  0  0  0  0  0  0
   -1.7341   -1.0358   12.4026 H   0  0  0  0  0  0  0  0  0  0  0  0
   -1.3371    0.6406   12.4604 H   0  0  0  0  0  0  0  0  0  0  0  0
  1  2  1  0
  2  3  2  0
  2  4  1  0
  4  5  1  0
  5  6  2  0
  6  7  1  0
  7  8  2  0
  8  9  1  0
  9 10  2  0
 10 11  1  0
 11 12  1  0
 12 13  2  0
 12 14  1  0
 14 15  1  0
 15 16  1  0
 16 17  1  0
 17 18  1  0
 18 19  2  0
 19 20  1  0
 20 21  2  0
 21 22  1  0
 10  5  1  0
 22 14  1  0
 21 17  1  0
  1 23  1  0
  1 24  1  0
  1 25  1  0
  4 26  1  0
  6 27  1  0
  7 28  1  0
  8 29  1  0
  9 30  1  0
 11 31  1  0
 11 32  1  0
 15 33  1  0
 15 34  1  0
 16 35  1  0
 16 36  1  0
 18 37  1  0
 22 38  1  0
 22 39  1  0
M  END
>  <Energy>  (142) 
1330.1551536341649

>  <compound_id>  (142) 
76318

>  <target_id>  (142) 
1

>  <reference_id>  (142) 
27

>  <inspiration_ids>  (142) 
[65, 27]

>  <energy_score>  (142) 
1295.8681412090264

>  <distance_score>  (142) 
7.57002254188907

>  <path>  (142) 
/opt/xchem-fragalysis-2/maxwin/BulkDock/SCRATCH/511022/C76318-P27/C76318-P27.minimised.mol

>  <scratch_subdir>  (142) 
/opt/xchem-fragalysis-2/maxwin/BulkDock/SCRATCH/511022/C76318-P27

>  <fragmenstein_runtime>  (142) 
9.166525840759277

>  <fragmenstein_outcome>  (142) 
too moved

>  <fragmenstein_mode>  (142) 
expansion

>  <fragmenstein_error>  (142) 


$$$$
C76316-P65
     RDKit          3D

 38 40  0  0  0  0  0  0  0  0999 V2000
    9.2900   -1.5281   15.4073 C   0  0  0  0  0  0  0  0  0  0  0  0
    8.4519   -0.9226   14.3318 C   0  0  0  0  0  0  0  0  0  0  0  0
    8.7571    0.1715   13.9457 O   0  0  0  0  0  0  0  0  0  0  0  0
    7.4212   -1.8511   13.8585 N   0  0  0  0  0  0  0  0  0  0  0  0
    6.5205   -1.7764   12.7213 C   0  0  0  0  0  0  0  0  0  0  0  0
    5.4882   -2.8311   12.3363 C   0  0  0  0  0  0  0  0  0  0  0  0
    4.0142   -2.9961   11.6713 C   0  0  0  0  0  0  0  0  0  0  0  0
    3.1893   -1.7388   11.1410 C   0  0  0  0  0  0  0  0  0  0  0  0
    1.3769   -1.5306   10.6815 N   0  0  0  0  0  0  0  0  0  0  0  0
    0.4961   -1.7092    9.0572 C   0  0  0  0  0  0  0  0  0  0  0  0
    1.1568   -1.8916    8.0383 O   0  0  0  0  0  0  0  0  0  0  0  0
   -1.4606   -1.9458    8.6468 N   0  0  0  0  0  0  0  0  0  0  0  0
   -2.4523   -1.1731    8.2416 C   0  0  0  0  0  0  0  0  0  0  0  0
   -3.7990   -2.0310    7.3263 C   0  0  0  0  0  0  0  0  0  0  0  0
   -4.7456   -0.9839    7.3566 N   0  0  0  0  0  0  0  0  0  0  0  0
   -5.8635   -0.6169    6.7267 C   0  0  0  0  0  0  0  0  0  0  0  0
   -5.8853    0.7065    6.6846 N   0  0  0  0  0  0  0  0  0  0  0  0
   -4.6872    1.1880    7.2230 N   0  0  0  0  0  0  0  0  0  0  0  0
   -4.0385    0.1271    7.6282 C   0  0  0  0  0  0  0  0  0  0  0  0
   -2.2672   -0.1787    8.1056 C   0  0  0  0  0  0  0  0  0  0  0  0
    4.4818   -0.4488   11.2510 C   0  0  0  0  0  0  0  0  0  0  0  0
    6.0877   -0.7602   12.0754 C   0  0  0  0  0  0  0  0  0  0  0  0
   10.3080   -1.1290   15.3437 H   0  0  0  0  0  0  0  0  0  0  0  0
    9.3629   -2.6038   15.2577 H   0  0  0  0  0  0  0  0  0  0  0  0
    8.8721   -1.2440   16.3663 H   0  0  0  0  0  0  0  0  0  0  0  0
    7.5001   -2.7151   14.3638 H   0  0  0  0  0  0  0  0  0  0  0  0
    5.5977   -2.9568   13.4373 H   0  0  0  0  0  0  0  0  0  0  0  0
    3.6266   -3.9711   11.9759 H   0  0  0  0  0  0  0  0  0  0  0  0
    0.6854   -1.4718   11.4126 H   0  0  0  0  0  0  0  0  0  0  0  0
   -2.0710   -1.7151    7.2331 H   0  0  0  0  0  0  0  0  0  0  0  0
   -3.0879   -1.5609    9.1046 H   0  0  0  0  0  0  0  0  0  0  0  0
   -4.0995   -2.9742    7.7513 H   0  0  0  0  0  0  0  0  0  0  0  0
   -3.5513   -2.1819    6.2658 H   0  0  0  0  0  0  0  0  0  0  0  0
   -6.6005   -1.2850    6.3048 H   0  0  0  0  0  0  0  0  0  0  0  0
   -2.6054    0.5842    8.8587 H   0  0  0  0  0  0  0  0  0  0  0  0
   -2.0749    0.1967    7.0260 H   0  0  0  0  0  0  0  0  0  0  0  0
    4.1935    0.5891   10.9495 H   0  0  0  0  0  0  0  0  0  0  0  0
    6.9950   -0.5479   11.4373 H   0  0  0  0  0  0  0  0  0  0  0  0
  1  2  1  0
  2  3  2  0
  2  4  1  0
  4  5  1  0
  5  6  2  0
  6  7  1  0
  7  8  2  0
  8  9  1  0
  9 10  1  0
 10 11  2  0
 10 12  1  0
 12 13  1  0
 13 14  1  0
 14 15  1  0
 15 16  1  0
 16 17  2  0
 17 18  1  0
 18 19  2  0
 19 20  1  0
  8 21  1  0
 21 22  2  0
 22  5  1  0
 20 12  1  0
 19 15  1  0
  1 23  1  0
  1 24  1  0
  1 25  1  0
  4 26  1  0
  6 27  1  0
  7 28  1  0
  9 29  1  0
 13 30  1  0
 13 31  1  0
 14 32  1  0
 14 33  1  0
 16 34  1  0
 20 35  1  0
 20 36  1  0
 21 37  1  0
 22 38  1  0
M  END
>  <Energy>  (143) 
1245.9265632869594

>  <compound_id>  (143) 
76316

>  <target_id>  (143) 
1

>  <reference_id>  (143) 
65

>  <inspiration_ids>  (143) 
[65, 27]

>  <energy_score>  (143) 
1265.6501405275883

>  <distance_score>  (143) 
8.223686158854699

>  <path>  (143) 
/opt/xchem-fragalysis-2/maxwin/BulkDock/SCRATCH/511022/C76316-P65/C76316-P65.minimised.mol

>  <scratch_subdir>  (143) 
/opt/xchem-fragalysis-2/maxwin/BulkDock/SCRATCH/511022/C76316-P65

>  <fragmenstein_runtime>  (143) 
8.203185319900513

>  <fragmenstein_outcome>  (143) 
too moved

>  <fragmenstein_mode>  (143) 
expansion

>  <fragmenstein_error>  (143) 


$$$$
C76316-P27
     RDKit          3D

 38 40  0  0  0  0  0  0  0  0999 V2000
    5.7819   -3.1412   14.7508 C   0  0  0  0  0  0  0  0  0  0  0  0
    4.2281   -3.8867   15.3460 C   0  0  0  0  0  0  0  0  0  0  0  0
    4.1123   -4.0285   16.5426 O   0  0  0  0  0  0  0  0  0  0  0  0
    3.0688   -4.1576   14.0777 N   0  0  0  0  0  0  0  0  0  0  0  0
    1.6620   -4.5006   14.1554 C   0  0  0  0  0  0  0  0  0  0  0  0
    1.2844   -3.1617   14.1980 C   0  0  0  0  0  0  0  0  0  0  0  0
    0.1015   -1.9919   14.2896 C   0  0  0  0  0  0  0  0  0  0  0  0
   -1.0869   -2.4785   14.1040 C   0  0  0  0  0  0  0  0  0  0  0  0
   -1.9815   -1.9439   13.1959 N   0  0  0  0  0  0  0  0  0  0  0  0
   -2.2898   -0.2709   12.6979 C   0  0  0  0  0  0  0  0  0  0  0  0
   -1.6885    0.7063   13.0890 O   0  0  0  0  0  0  0  0  0  0  0  0
   -3.8600   -0.1670   11.5298 N   0  0  0  0  0  0  0  0  0  0  0  0
   -3.2103   -0.1964    9.5779 C   0  0  0  0  0  0  0  0  0  0  0  0
   -3.7020   -1.0545    7.9453 C   0  0  0  0  0  0  0  0  0  0  0  0
   -4.9801   -0.4726    7.6234 N   0  0  0  0  0  0  0  0  0  0  0  0
   -6.1521   -0.7869    7.0511 C   0  0  0  0  0  0  0  0  0  0  0  0
   -7.0785    0.0172    7.5396 N   0  0  0  0  0  0  0  0  0  0  0  0
   -6.5385    0.6776    8.6287 N   0  0  0  0  0  0  0  0  0  0  0  0
   -5.2833    0.3146    8.6706 C   0  0  0  0  0  0  0  0  0  0  0  0
   -4.1109   -0.1655    9.8713 C   0  0  0  0  0  0  0  0  0  0  0  0
   -1.0282   -4.0468   13.9806 C   0  0  0  0  0  0  0  0  0  0  0  0
    0.3515   -5.0202   13.9027 C   0  0  0  0  0  0  0  0  0  0  0  0
    6.7203   -3.3655   15.2224 H   0  0  0  0  0  0  0  0  0  0  0  0
    5.9191   -2.9570   13.6964 H   0  0  0  0  0  0  0  0  0  0  0  0
    5.7532   -2.1259   14.9746 H   0  0  0  0  0  0  0  0  0  0  0  0
    3.4554   -3.8647   13.1844 H   0  0  0  0  0  0  0  0  0  0  0  0
    2.0229   -2.5685   13.6580 H   0  0  0  0  0  0  0  0  0  0  0  0
    0.3621   -0.9553   14.0765 H   0  0  0  0  0  0  0  0  0  0  0  0
   -2.6271   -2.5076   12.8207 H   0  0  0  0  0  0  0  0  0  0  0  0
   -2.8882    0.9131    9.1912 H   0  0  0  0  0  0  0  0  0  0  0  0
   -2.1258   -0.5370    9.4666 H   0  0  0  0  0  0  0  0  0  0  0  0
   -2.9592   -0.7362    7.2288 H   0  0  0  0  0  0  0  0  0  0  0  0
   -3.7273   -2.1390    8.0288 H   0  0  0  0  0  0  0  0  0  0  0  0
   -6.3407   -1.5682    6.3300 H   0  0  0  0  0  0  0  0  0  0  0  0
   -5.1821   -0.3373   10.1481 H   0  0  0  0  0  0  0  0  0  0  0  0
   -4.3525   -1.4054    9.7383 H   0  0  0  0  0  0  0  0  0  0  0  0
   -1.9447   -4.5744   13.7026 H   0  0  0  0  0  0  0  0  0  0  0  0
    0.0791   -6.0145   13.5739 H   0  0  0  0  0  0  0  0  0  0  0  0
  1  2  1  0
  2  3  2  0
  2  4  1  0
  4  5  1  0
  5  6  2  0
  6  7  1  0
  7  8  2  0
  8  9  1  0
  9 10  1  0
 10 11  2  0
 10 12  1  0
 12 13  1  0
 13 14  1  0
 14 15  1  0
 15 16  1  0
 16 17  2  0
 17 18  1  0
 18 19  2  0
 19 20  1  0
  8 21  1  0
 21 22  2  0
 22  5  1  0
 20 12  1  0
 19 15  1  0
  1 23  1  0
  1 24  1  0
  1 25  1  0
  4 26  1  0
  6 27  1  0
  7 28  1  0
  9 29  1  0
 13 30  1  0
 13 31  1  0
 14 32  1  0
 14 33  1  0
 16 34  1  0
 20 35  1  0
 20 36  1  0
 21 37  1  0
 22 38  1  0
M  END
>  <Energy>  (144) 
1096.8724750950973

>  <compound_id>  (144) 
76316

>  <target_id>  (144) 
1

>  <reference_id>  (144) 
27

>  <inspiration_ids>  (144) 
[65, 27]

>  <energy_score>  (144) 
1116.5960523357317

>  <distance_score>  (144) 
10.383825536927542

>  <path>  (144) 
/opt/xchem-fragalysis-2/maxwin/BulkDock/SCRATCH/511022/C76316-P27/C76316-P27.minimised.mol

>  <scratch_subdir>  (144) 
/opt/xchem-fragalysis-2/maxwin/BulkDock/SCRATCH/511022/C76316-P27

>  <fragmenstein_runtime>  (144) 
12.570923089981079

>  <fragmenstein_outcome>  (144) 
too moved

>  <fragmenstein_mode>  (144) 
expansion

>  <fragmenstein_error>  (144) 


$$$$
C76317-P65
     RDKit          3D

 38 40  0  0  0  0  0  0  0  0999 V2000
    4.2114   -3.8574   11.7719 C   0  0  0  0  0  0  0  0  0  0  0  0
    2.9866   -3.3752   12.5049 C   0  0  0  0  0  0  0  0  0  0  0  0
    2.5545   -3.8499   13.5387 O   0  0  0  0  0  0  0  0  0  0  0  0
    2.3034   -2.0818   11.4387 N   0  0  0  0  0  0  0  0  0  0  0  0
    0.7959   -1.2645   11.5430 C   0  0  0  0  0  0  0  0  0  0  0  0
    1.0901   -1.4255   10.2422 C   0  0  0  0  0  0  0  0  0  0  0  0
    0.3867   -1.6190    9.0910 C   0  0  0  0  0  0  0  0  0  0  0  0
   -1.4215   -1.7377    8.5958 C   0  0  0  0  0  0  0  0  0  0  0  0
   -2.0292   -1.2660    9.5297 C   0  0  0  0  0  0  0  0  0  0  0  0
   -3.2877   -0.6983    9.0216 N   0  0  0  0  0  0  0  0  0  0  0  0
   -3.6062   -0.0482    7.6937 C   0  0  0  0  0  0  0  0  0  0  0  0
   -2.9018    0.2199    6.8034 O   0  0  0  0  0  0  0  0  0  0  0  0
   -5.0490    0.0981    7.7821 N   0  0  0  0  0  0  0  0  0  0  0  0
   -5.7419   -1.1969    7.2973 C   0  0  0  0  0  0  0  0  0  0  0  0
   -7.1103   -1.5251    7.9051 C   0  0  0  0  0  0  0  0  0  0  0  0
   -8.0092   -0.4719    7.5869 N   0  0  0  0  0  0  0  0  0  0  0  0
   -9.3398   -0.3371    7.6930 C   0  0  0  0  0  0  0  0  0  0  0  0
   -9.6620    0.8588    7.2450 N   0  0  0  0  0  0  0  0  0  0  0  0
   -8.4929    1.5056    6.8666 N   0  0  0  0  0  0  0  0  0  0  0  0
   -7.5017    0.6784    7.1026 C   0  0  0  0  0  0  0  0  0  0  0  0
   -6.0515    0.7392    6.8132 C   0  0  0  0  0  0  0  0  0  0  0  0
   -0.8080   -1.0476   11.0258 C   0  0  0  0  0  0  0  0  0  0  0  0
    5.0718   -3.2522   11.9858 H   0  0  0  0  0  0  0  0  0  0  0  0
    4.0445   -3.9452   10.7039 H   0  0  0  0  0  0  0  0  0  0  0  0
    4.3157   -4.9163   12.0063 H   0  0  0  0  0  0  0  0  0  0  0  0
    2.8666   -1.9867   10.6260 H   0  0  0  0  0  0  0  0  0  0  0  0
    1.9181   -0.8943    9.8411 H   0  0  0  0  0  0  0  0  0  0  0  0
    1.1594   -1.7960    8.2619 H   0  0  0  0  0  0  0  0  0  0  0  0
   -1.8444   -1.9124    7.5962 H   0  0  0  0  0  0  0  0  0  0  0  0
   -4.1200   -0.7079    9.5983 H   0  0  0  0  0  0  0  0  0  0  0  0
   -5.0838   -2.0044    7.6463 H   0  0  0  0  0  0  0  0  0  0  0  0
   -5.6857   -1.3582    6.2053 H   0  0  0  0  0  0  0  0  0  0  0  0
   -7.0362   -1.5306    8.9844 H   0  0  0  0  0  0  0  0  0  0  0  0
   -7.5088   -2.4718    7.5310 H   0  0  0  0  0  0  0  0  0  0  0  0
  -10.0154   -1.0863    8.0842 H   0  0  0  0  0  0  0  0  0  0  0  0
   -5.7845    1.8034    6.9071 H   0  0  0  0  0  0  0  0  0  0  0  0
   -5.7978    0.5461    5.7582 H   0  0  0  0  0  0  0  0  0  0  0  0
   -1.2608   -0.4599   11.8798 H   0  0  0  0  0  0  0  0  0  0  0  0
  1  2  1  0
  2  3  2  0
  2  4  1  0
  4  5  1  0
  5  6  2  0
  6  7  1  0
  7  8  2  0
  8  9  1  0
  9 10  1  0
 10 11  1  0
 11 12  2  0
 11 13  1  0
 13 14  1  0
 14 15  1  0
 15 16  1  0
 16 17  1  0
 17 18  2  0
 18 19  1  0
 19 20  2  0
 20 21  1  0
  9 22  2  0
 22  5  1  0
 21 13  1  0
 20 16  1  0
  1 23  1  0
  1 24  1  0
  1 25  1  0
  4 26  1  0
  6 27  1  0
  7 28  1  0
  8 29  1  0
 10 30  1  0
 14 31  1  0
 14 32  1  0
 15 33  1  0
 15 34  1  0
 17 35  1  0
 21 36  1  0
 21 37  1  0
 22 38  1  0
M  END
>  <Energy>  (145) 
505.23383869120016

>  <compound_id>  (145) 
76317

>  <target_id>  (145) 
1

>  <reference_id>  (145) 
65

>  <inspiration_ids>  (145) 
[65, 27]

>  <energy_score>  (145) 
521.8567974499692

>  <distance_score>  (145) 
12.055166530963488

>  <path>  (145) 
/opt/xchem-fragalysis-2/maxwin/BulkDock/SCRATCH/511022/C76317-P65/C76317-P65.minimised.mol

>  <scratch_subdir>  (145) 
/opt/xchem-fragalysis-2/maxwin/BulkDock/SCRATCH/511022/C76317-P65

>  <fragmenstein_runtime>  (145) 
17.102552890777588

>  <fragmenstein_outcome>  (145) 
too moved

>  <fragmenstein_mode>  (145) 
expansion

>  <fragmenstein_error>  (145) 


$$$$
C76317-P27
     RDKit          3D

 38 40  0  0  0  0  0  0  0  0999 V2000
    8.3445    2.2728   16.6883 C   0  0  0  0  0  0  0  0  0  0  0  0
    8.7963    0.8962   16.2428 C   0  0  0  0  0  0  0  0  0  0  0  0
    9.9649    0.7495   16.0075 O   0  0  0  0  0  0  0  0  0  0  0  0
    7.6696   -0.0206   16.0834 N   0  0  0  0  0  0  0  0  0  0  0  0
    7.6029   -1.3145   15.5192 C   0  0  0  0  0  0  0  0  0  0  0  0
    8.8240   -1.7371   15.2223 C   0  0  0  0  0  0  0  0  0  0  0  0
    8.5054   -2.7759   14.5143 C   0  0  0  0  0  0  0  0  0  0  0  0
    7.3031   -2.6257   13.6443 C   0  0  0  0  0  0  0  0  0  0  0  0
    5.9640   -3.0802   13.8074 C   0  0  0  0  0  0  0  0  0  0  0  0
    4.8042   -3.0615   12.2664 N   0  0  0  0  0  0  0  0  0  0  0  0
    2.9573   -2.7675   12.0434 C   0  0  0  0  0  0  0  0  0  0  0  0
    2.4247   -2.7239   13.1320 O   0  0  0  0  0  0  0  0  0  0  0  0
    1.5588   -2.1577   10.5619 N   0  0  0  0  0  0  0  0  0  0  0  0
    1.0631   -0.5404    9.8009 C   0  0  0  0  0  0  0  0  0  0  0  0
   -1.1586   -0.3672    9.1088 C   0  0  0  0  0  0  0  0  0  0  0  0
   -2.5870   -0.1455    9.3135 N   0  0  0  0  0  0  0  0  0  0  0  0
   -3.7403   -0.3788    8.6159 C   0  0  0  0  0  0  0  0  0  0  0  0
   -3.7382   -1.5526    8.0600 N   0  0  0  0  0  0  0  0  0  0  0  0
   -2.6560   -2.2003    8.5727 N   0  0  0  0  0  0  0  0  0  0  0  0
   -1.9294   -1.3368    9.3351 C   0  0  0  0  0  0  0  0  0  0  0  0
   -0.2888   -1.4144   10.6865 C   0  0  0  0  0  0  0  0  0  0  0  0
    6.2382   -2.0913   14.7601 C   0  0  0  0  0  0  0  0  0  0  0  0
    7.4951    2.6231   16.0993 H   0  0  0  0  0  0  0  0  0  0  0  0
    8.0932    2.2724   17.7444 H   0  0  0  0  0  0  0  0  0  0  0  0
    9.1612    2.9858   16.5334 H   0  0  0  0  0  0  0  0  0  0  0  0
    6.8324    0.4135   16.4629 H   0  0  0  0  0  0  0  0  0  0  0  0
    9.7664   -1.5249   15.6859 H   0  0  0  0  0  0  0  0  0  0  0  0
    8.8619   -3.7147   14.9165 H   0  0  0  0  0  0  0  0  0  0  0  0
    7.3784   -1.8441   12.8463 H   0  0  0  0  0  0  0  0  0  0  0  0
    5.1562   -3.1975   11.4400 H   0  0  0  0  0  0  0  0  0  0  0  0
    1.7624    0.3252    9.6361 H   0  0  0  0  0  0  0  0  0  0  0  0
    1.5707   -1.0808    8.9825 H   0  0  0  0  0  0  0  0  0  0  0  0
   -1.3237   -0.8104    7.7777 H   0  0  0  0  0  0  0  0  0  0  0  0
   -1.5712    0.6292    8.5533 H   0  0  0  0  0  0  0  0  0  0  0  0
   -4.5547    0.3246    8.5734 H   0  0  0  0  0  0  0  0  0  0  0  0
   -1.0885   -1.1945   11.5611 H   0  0  0  0  0  0  0  0  0  0  0  0
    0.0766   -0.6266   11.4282 H   0  0  0  0  0  0  0  0  0  0  0  0
    5.7501   -1.2677   14.2926 H   0  0  0  0  0  0  0  0  0  0  0  0
  1  2  1  0
  2  3  2  0
  2  4  1  0
  4  5  1  0
  5  6  2  0
  6  7  1  0
  7  8  2  0
  8  9  1  0
  9 10  1  0
 10 11  1  0
 11 12  2  0
 11 13  1  0
 13 14  1  0
 14 15  1  0
 15 16  1  0
 16 17  1  0
 17 18  2  0
 18 19  1  0
 19 20  2  0
 20 21  1  0
  9 22  2  0
 22  5  1  0
 21 13  1  0
 20 16  1  0
  1 23  1  0
  1 24  1  0
  1 25  1  0
  4 26  1  0
  6 27  1  0
  7 28  1  0
  8 29  1  0
 10 30  1  0
 14 31  1  0
 14 32  1  0
 15 33  1  0
 15 34  1  0
 17 35  1  0
 21 36  1  0
 21 37  1  0
 22 38  1  0
M  END
>  <Energy>  (146) 
1671.2792500504625

>  <compound_id>  (146) 
76317

>  <target_id>  (146) 
1

>  <reference_id>  (146) 
27

>  <inspiration_ids>  (146) 
[65, 27]

>  <energy_score>  (146) 
1687.9022088092395

>  <distance_score>  (146) 
7.3900934278837065

>  <path>  (146) 
/opt/xchem-fragalysis-2/maxwin/BulkDock/SCRATCH/511022/C76317-P27/C76317-P27.minimised.mol

>  <scratch_subdir>  (146) 
/opt/xchem-fragalysis-2/maxwin/BulkDock/SCRATCH/511022/C76317-P27

>  <fragmenstein_runtime>  (146) 
17.472505807876587

>  <fragmenstein_outcome>  (146) 
too moved

>  <fragmenstein_mode>  (146) 
expansion

>  <fragmenstein_error>  (146) 


$$$$
C76314-P65
     RDKit          3D

 42 44  0  0  0  0  0  0  0  0999 V2000
   10.2272    2.0511   10.4486 C   0  0  0  0  0  0  0  0  0  0  0  0
   10.2308    1.6674   11.9221 C   0  0  0  0  0  0  0  0  0  0  0  0
   11.0327    2.2263   12.6236 O   0  0  0  0  0  0  0  0  0  0  0  0
    9.1665    0.7011   12.2569 N   0  0  0  0  0  0  0  0  0  0  0  0
    8.8301    0.0697   13.4942 C   0  0  0  0  0  0  0  0  0  0  0  0
    9.6669    0.5271   14.5321 C   0  0  0  0  0  0  0  0  0  0  0  0
    9.6981   -0.1426   15.6920 C   0  0  0  0  0  0  0  0  0  0  0  0
    8.9281   -1.2756   15.7728 C   0  0  0  0  0  0  0  0  0  0  0  0
    8.0119   -1.8022   14.8307 C   0  0  0  0  0  0  0  0  0  0  0  0
    7.8253   -1.1590   13.6180 C   0  0  0  0  0  0  0  0  0  0  0  0
    6.5276   -1.6521   12.4907 C   0  0  0  0  0  0  0  0  0  0  0  0
    5.0978   -2.8261   12.0854 N   0  0  0  0  0  0  0  0  0  0  0  0
    3.5320   -2.3427   11.2186 C   0  0  0  0  0  0  0  0  0  0  0  0
    1.7987   -1.3796   11.3298 C   0  0  0  0  0  0  0  0  0  0  0  0
    1.0964   -0.7998   12.3846 N   0  0  0  0  0  0  0  0  0  0  0  0
   -0.5359   -0.7005   12.1359 N   0  0  0  0  0  0  0  0  0  0  0  0
   -0.8489   -1.0244   10.8723 C   0  0  0  0  0  0  0  0  0  0  0  0
    0.5769   -1.5324   10.4865 N   0  0  0  0  0  0  0  0  0  0  0  0
    0.4051   -1.5694    9.0798 C   0  0  0  0  0  0  0  0  0  0  0  0
   -1.5596   -1.7861    8.2736 C   0  0  0  0  0  0  0  0  0  0  0  0
   -2.4016   -0.6518    8.1514 N   0  0  0  0  0  0  0  0  0  0  0  0
   -2.4459   -1.0004    9.5019 C   0  0  0  0  0  0  0  0  0  0  0  0
   10.1608    3.1416   10.3777 H   0  0  0  0  0  0  0  0  0  0  0  0
    9.3958    1.6392    9.8763 H   0  0  0  0  0  0  0  0  0  0  0  0
   11.1655    1.7221    9.9943 H   0  0  0  0  0  0  0  0  0  0  0  0
    8.7391    0.3760   11.4121 H   0  0  0  0  0  0  0  0  0  0  0  0
   10.3089    1.3933   14.4581 H   0  0  0  0  0  0  0  0  0  0  0  0
   10.3164    0.2034   16.5028 H   0  0  0  0  0  0  0  0  0  0  0  0
    9.0877   -1.7235   16.7048 H   0  0  0  0  0  0  0  0  0  0  0  0
    7.4534   -2.6865   15.0658 H   0  0  0  0  0  0  0  0  0  0  0  0
    6.0210   -0.7210   12.4145 H   0  0  0  0  0  0  0  0  0  0  0  0
    6.2722   -2.0927   13.4643 H   0  0  0  0  0  0  0  0  0  0  0  0
    5.3883   -3.6621   11.6386 H   0  0  0  0  0  0  0  0  0  0  0  0
    3.5640   -2.8301   10.2429 H   0  0  0  0  0  0  0  0  0  0  0  0
    3.2811   -3.0975   12.0239 H   0  0  0  0  0  0  0  0  0  0  0  0
    1.1476   -2.0998    8.4059 H   0  0  0  0  0  0  0  0  0  0  0  0
    1.0155   -0.6452    8.8805 H   0  0  0  0  0  0  0  0  0  0  0  0
   -2.2027   -2.6807    8.4166 H   0  0  0  0  0  0  0  0  0  0  0  0
   -1.5608   -1.9367    7.1449 H   0  0  0  0  0  0  0  0  0  0  0  0
   -3.2843   -0.8838    7.6955 H   0  0  0  0  0  0  0  0  0  0  0  0
   -3.2277   -0.2702    9.7050 H   0  0  0  0  0  0  0  0  0  0  0  0
   -3.1755   -1.8568    9.4795 H   0  0  0  0  0  0  0  0  0  0  0  0
  1  2  1  0
  2  3  2  0
  2  4  1  0
  4  5  1  0
  5  6  2  0
  6  7  1  0
  7  8  2  0
  8  9  1  0
  9 10  2  0
 10 11  1  0
 11 12  1  0
 12 13  1  0
 13 14  1  0
 14 15  2  0
 15 16  1  0
 16 17  2  0
 17 18  1  0
 18 19  1  0
 19 20  1  0
 20 21  1  0
 21 22  1  0
 10  5  1  0
 18 14  1  0
 22 17  1  0
  1 23  1  0
  1 24  1  0
  1 25  1  0
  4 26  1  0
  6 27  1  0
  7 28  1  0
  8 29  1  0
  9 30  1  0
 11 31  1  0
 11 32  1  0
 12 33  1  0
 13 34  1  0
 13 35  1  0
 19 36  1  0
 19 37  1  0
 20 38  1  0
 20 39  1  0
 21 40  1  0
 22 41  1  0
 22 42  1  0
M  END
>  <Energy>  (147) 
737.04096053068133

>  <compound_id>  (147) 
76314

>  <target_id>  (147) 
1

>  <reference_id>  (147) 
65

>  <inspiration_ids>  (147) 
[65, 27]

>  <energy_score>  (147) 
669.9450192086581

>  <distance_score>  (147) 
8.266085342853783

>  <path>  (147) 
/opt/xchem-fragalysis-2/maxwin/BulkDock/SCRATCH/511022/C76314-P65/C76314-P65.minimised.mol

>  <scratch_subdir>  (147) 
/opt/xchem-fragalysis-2/maxwin/BulkDock/SCRATCH/511022/C76314-P65

>  <fragmenstein_runtime>  (147) 
20.28726315498352

>  <fragmenstein_outcome>  (147) 
too moved

>  <fragmenstein_mode>  (147) 
expansion

>  <fragmenstein_error>  (147) 


$$$$
C76314-P27
     RDKit          3D

 42 44  0  0  0  0  0  0  0  0999 V2000
    7.4753   -2.8440   14.9404 C   0  0  0  0  0  0  0  0  0  0  0  0
    6.2331   -3.8180   15.3040 C   0  0  0  0  0  0  0  0  0  0  0  0
    5.1257   -3.2764   15.2205 O   0  0  0  0  0  0  0  0  0  0  0  0
    6.6960   -5.5819   15.8818 N   0  0  0  0  0  0  0  0  0  0  0  0
    5.8377   -6.6802   16.4597 C   0  0  0  0  0  0  0  0  0  0  0  0
    5.8682   -6.6315   17.8801 C   0  0  0  0  0  0  0  0  0  0  0  0
    5.8160   -7.7539   18.7104 C   0  0  0  0  0  0  0  0  0  0  0  0
    5.7536   -9.0108   18.1547 C   0  0  0  0  0  0  0  0  0  0  0  0
    5.6767   -9.1377   16.7717 C   0  0  0  0  0  0  0  0  0  0  0  0
    5.6924   -8.0252   15.8783 C   0  0  0  0  0  0  0  0  0  0  0  0
    5.5672   -8.5283   14.3842 C   0  0  0  0  0  0  0  0  0  0  0  0
    4.4102   -9.4913   14.0807 N   0  0  0  0  0  0  0  0  0  0  0  0
    3.9768   -9.6832   12.6141 C   0  0  0  0  0  0  0  0  0  0  0  0
    2.4450   -9.9668   12.3606 C   0  0  0  0  0  0  0  0  0  0  0  0
    1.5797  -10.4540   13.2409 N   0  0  0  0  0  0  0  0  0  0  0  0
    0.2865  -10.3139   12.7559 N   0  0  0  0  0  0  0  0  0  0  0  0
    0.3555   -9.7566   11.5708 C   0  0  0  0  0  0  0  0  0  0  0  0
    1.6858   -9.5823   11.2592 N   0  0  0  0  0  0  0  0  0  0  0  0
    2.0633   -8.8818   10.0574 C   0  0  0  0  0  0  0  0  0  0  0  0
    0.9344   -8.8982    9.0057 C   0  0  0  0  0  0  0  0  0  0  0  0
   -0.3576   -8.4778    9.5558 N   0  0  0  0  0  0  0  0  0  0  0  0
   -0.7667   -9.3610   10.6611 C   0  0  0  0  0  0  0  0  0  0  0  0
    7.5029   -1.9868   15.6130 H   0  0  0  0  0  0  0  0  0  0  0  0
    7.2709   -2.4088   13.9593 H   0  0  0  0  0  0  0  0  0  0  0  0
    8.4519   -3.3104   14.9159 H   0  0  0  0  0  0  0  0  0  0  0  0
    7.6857   -5.7557   15.7585 H   0  0  0  0  0  0  0  0  0  0  0  0
    6.0426   -5.7091   18.4138 H   0  0  0  0  0  0  0  0  0  0  0  0
    5.8726   -7.6291   19.7888 H   0  0  0  0  0  0  0  0  0  0  0  0
    5.7314   -9.8953   18.7849 H   0  0  0  0  0  0  0  0  0  0  0  0
    5.5944  -10.1483   16.3658 H   0  0  0  0  0  0  0  0  0  0  0  0
    5.4941   -7.7225   13.6804 H   0  0  0  0  0  0  0  0  0  0  0  0
    6.4991   -9.0567   14.1467 H   0  0  0  0  0  0  0  0  0  0  0  0
    3.5912   -9.2013   14.6175 H   0  0  0  0  0  0  0  0  0  0  0  0
    4.2717   -8.8061   12.0260 H   0  0  0  0  0  0  0  0  0  0  0  0
    4.5336  -10.5436   12.2274 H   0  0  0  0  0  0  0  0  0  0  0  0
    2.2567   -7.8682   10.4010 H   0  0  0  0  0  0  0  0  0  0  0  0
    2.9785   -9.3330    9.6642 H   0  0  0  0  0  0  0  0  0  0  0  0
    1.1899   -8.2499    8.1627 H   0  0  0  0  0  0  0  0  0  0  0  0
    0.8332   -9.9092    8.5898 H   0  0  0  0  0  0  0  0  0  0  0  0
   -0.3034   -7.5222    9.8971 H   0  0  0  0  0  0  0  0  0  0  0  0
   -1.2094  -10.2707   10.2388 H   0  0  0  0  0  0  0  0  0  0  0  0
   -1.5525   -8.8640   11.2402 H   0  0  0  0  0  0  0  0  0  0  0  0
  1  2  1  0
  2  3  2  0
  2  4  1  0
  4  5  1  0
  5  6  2  0
  6  7  1  0
  7  8  2  0
  8  9  1  0
  9 10  2  0
 10 11  1  0
 11 12  1  0
 12 13  1  0
 13 14  1  0
 14 15  2  0
 15 16  1  0
 16 17  2  0
 17 18  1  0
 18 19  1  0
 19 20  1  0
 20 21  1  0
 21 22  1  0
 10  5  1  0
 18 14  1  0
 22 17  1  0
  1 23  1  0
  1 24  1  0
  1 25  1  0
  4 26  1  0
  6 27  1  0
  7 28  1  0
  8 29  1  0
  9 30  1  0
 11 31  1  0
 11 32  1  0
 12 33  1  0
 13 34  1  0
 13 35  1  0
 19 36  1  0
 19 37  1  0
 20 38  1  0
 20 39  1  0
 21 40  1  0
 22 41  1  0
 22 42  1  0
M  END
>  <Energy>  (148) 
175.1047017859193

>  <compound_id>  (148) 
76314

>  <target_id>  (148) 
1

>  <reference_id>  (148) 
27

>  <inspiration_ids>  (148) 
[65, 27]

>  <energy_score>  (148) 
108.00876046390891

>  <distance_score>  (148) 
10.69584895458034

>  <path>  (148) 
/opt/xchem-fragalysis-2/maxwin/BulkDock/SCRATCH/511022/C76314-P27/C76314-P27.minimised.mol

>  <scratch_subdir>  (148) 
/opt/xchem-fragalysis-2/maxwin/BulkDock/SCRATCH/511022/C76314-P27

>  <fragmenstein_runtime>  (148) 
12.833791971206665

>  <fragmenstein_outcome>  (148) 
too moved

>  <fragmenstein_mode>  (148) 
expansion

>  <fragmenstein_error>  (148) 


$$$$
C76318-P65
     RDKit          3D

 39 41  0  0  0  0  0  0  0  0999 V2000
   11.1028   -3.3662   15.2420 C   0  0  0  0  0  0  0  0  0  0  0  0
   10.0093   -2.3203   15.3457 C   0  0  0  0  0  0  0  0  0  0  0  0
   10.3344   -1.2184   15.7402 O   0  0  0  0  0  0  0  0  0  0  0  0
    8.6587   -2.8395   14.8198 N   0  0  0  0  0  0  0  0  0  0  0  0
    7.2456   -2.0502   14.5157 C   0  0  0  0  0  0  0  0  0  0  0  0
    7.8701   -0.9509   15.1739 C   0  0  0  0  0  0  0  0  0  0  0  0
    8.6158   -0.1222   14.3362 C   0  0  0  0  0  0  0  0  0  0  0  0
    8.2658   -0.1634   12.9599 C   0  0  0  0  0  0  0  0  0  0  0  0
    7.2279   -1.0223   12.3055 C   0  0  0  0  0  0  0  0  0  0  0  0
    6.4384   -1.9198   12.9968 C   0  0  0  0  0  0  0  0  0  0  0  0
    4.8950   -2.6926   11.8951 C   0  0  0  0  0  0  0  0  0  0  0  0
    2.8954   -2.6652   11.7994 C   0  0  0  0  0  0  0  0  0  0  0  0
    2.4428   -3.5901   12.6287 O   0  0  0  0  0  0  0  0  0  0  0  0
    1.5415   -1.4497   10.8595 N   0  0  0  0  0  0  0  0  0  0  0  0
    0.6100   -1.6460    9.1418 C   0  0  0  0  0  0  0  0  0  0  0  0
   -1.4140   -1.8866    8.4076 C   0  0  0  0  0  0  0  0  0  0  0  0
   -2.2323   -0.8183    8.2601 N   0  0  0  0  0  0  0  0  0  0  0  0
   -3.4255   -0.8044    7.6476 C   0  0  0  0  0  0  0  0  0  0  0  0
   -4.2559   -0.6369    8.6050 N   0  0  0  0  0  0  0  0  0  0  0  0
   -3.4207   -0.4707    9.6726 N   0  0  0  0  0  0  0  0  0  0  0  0
   -2.0914   -1.1636    9.5797 C   0  0  0  0  0  0  0  0  0  0  0  0
   -0.4946   -1.2473   11.0264 C   0  0  0  0  0  0  0  0  0  0  0  0
   11.4855   -3.5999   16.2386 H   0  0  0  0  0  0  0  0  0  0  0  0
   10.7857   -4.2786   14.7589 H   0  0  0  0  0  0  0  0  0  0  0  0
   11.9171   -2.9498   14.6402 H   0  0  0  0  0  0  0  0  0  0  0  0
    8.7233   -3.8026   14.6633 H   0  0  0  0  0  0  0  0  0  0  0  0
    8.0219   -0.8930   16.2411 H   0  0  0  0  0  0  0  0  0  0  0  0
    9.3494    0.5832   14.7121 H   0  0  0  0  0  0  0  0  0  0  0  0
    8.9131    0.4304   12.2987 H   0  0  0  0  0  0  0  0  0  0  0  0
    7.1827   -0.8953   11.2378 H   0  0  0  0  0  0  0  0  0  0  0  0
    5.2875   -3.6119   11.4268 H   0  0  0  0  0  0  0  0  0  0  0  0
    4.5683   -3.2744   12.7050 H   0  0  0  0  0  0  0  0  0  0  0  0
    1.2822   -2.1152    8.3492 H   0  0  0  0  0  0  0  0  0  0  0  0
    1.0391   -0.6568    8.9018 H   0  0  0  0  0  0  0  0  0  0  0  0
   -2.1873   -2.7377    8.5453 H   0  0  0  0  0  0  0  0  0  0  0  0
   -1.4881   -2.0339    7.2411 H   0  0  0  0  0  0  0  0  0  0  0  0
   -3.6158   -0.9248    6.5927 H   0  0  0  0  0  0  0  0  0  0  0  0
   -0.8251   -1.2583   12.0558 H   0  0  0  0  0  0  0  0  0  0  0  0
   -0.7819   -0.2968   11.4006 H   0  0  0  0  0  0  0  0  0  0  0  0
  1  2  1  0
  2  3  2  0
  2  4  1  0
  4  5  1  0
  5  6  2  0
  6  7  1  0
  7  8  2  0
  8  9  1  0
  9 10  2  0
 10 11  1  0
 11 12  1  0
 12 13  2  0
 12 14  1  0
 14 15  1  0
 15 16  1  0
 16 17  1  0
 17 18  1  0
 18 19  2  0
 19 20  1  0
 20 21  2  0
 21 22  1  0
 10  5  1  0
 22 14  1  0
 21 17  1  0
  1 23  1  0
  1 24  1  0
  1 25  1  0
  4 26  1  0
  6 27  1  0
  7 28  1  0
  8 29  1  0
  9 30  1  0
 11 31  1  0
 11 32  1  0
 15 33  1  0
 15 34  1  0
 16 35  1  0
 16 36  1  0
 18 37  1  0
 22 38  1  0
 22 39  1  0
M  END
>  <Energy>  (149) 
1333.5326286601994

>  <compound_id>  (149) 
76318

>  <target_id>  (149) 
1

>  <reference_id>  (149) 
65

>  <inspiration_ids>  (149) 
[65, 27]

>  <energy_score>  (149) 
1299.2456162350538

>  <distance_score>  (149) 
7.247213593238509

>  <path>  (149) 
/opt/xchem-fragalysis-2/maxwin/BulkDock/SCRATCH/511022/C76318-P65/C76318-P65.minimised.mol

>  <scratch_subdir>  (149) 
/opt/xchem-fragalysis-2/maxwin/BulkDock/SCRATCH/511022/C76318-P65

>  <fragmenstein_runtime>  (149) 
6.863479852676392

>  <fragmenstein_outcome>  (149) 
too moved

>  <fragmenstein_mode>  (149) 
expansion

>  <fragmenstein_error>  (149) 


$$$$
C76318-P27
     RDKit          3D

 39 41  0  0  0  0  0  0  0  0999 V2000
    9.2630    0.3218   11.7802 C   0  0  0  0  0  0  0  0  0  0  0  0
    8.5664   -0.1408   13.1325 C   0  0  0  0  0  0  0  0  0  0  0  0
    9.2064    0.2703   14.0966 O   0  0  0  0  0  0  0  0  0  0  0  0
    7.1938   -1.0484   13.0758 N   0  0  0  0  0  0  0  0  0  0  0  0
    6.3722   -1.7111   14.2321 C   0  0  0  0  0  0  0  0  0  0  0  0
    7.4111   -1.2829   15.3998 C   0  0  0  0  0  0  0  0  0  0  0  0
    8.5497   -1.8880   15.2929 C   0  0  0  0  0  0  0  0  0  0  0  0
    8.0115   -3.0471   14.9949 C   0  0  0  0  0  0  0  0  0  0  0  0
    6.3450   -3.2539   14.8649 C   0  0  0  0  0  0  0  0  0  0  0  0
    5.2467   -2.6100   14.4950 C   0  0  0  0  0  0  0  0  0  0  0  0
    3.3917   -2.9571   13.5926 C   0  0  0  0  0  0  0  0  0  0  0  0
    1.4398   -2.0682   13.4346 C   0  0  0  0  0  0  0  0  0  0  0  0
    0.6568   -2.6587   14.1894 O   0  0  0  0  0  0  0  0  0  0  0  0
    0.6748   -0.7519   12.2064 N   0  0  0  0  0  0  0  0  0  0  0  0
    0.1012   -1.2157   10.4083 C   0  0  0  0  0  0  0  0  0  0  0  0
   -1.4799   -1.1221    8.9674 C   0  0  0  0  0  0  0  0  0  0  0  0
   -2.8118   -0.9269    9.1271 N   0  0  0  0  0  0  0  0  0  0  0  0
   -3.8847   -0.7221    8.3843 C   0  0  0  0  0  0  0  0  0  0  0  0
   -4.1907    0.5124    8.5990 N   0  0  0  0  0  0  0  0  0  0  0  0
   -3.1071    1.0281    9.3108 N   0  0  0  0  0  0  0  0  0  0  0  0
   -2.3441    0.0604    9.9631 C   0  0  0  0  0  0  0  0  0  0  0  0
   -1.2499   -0.2549   11.8421 C   0  0  0  0  0  0  0  0  0  0  0  0
    8.6817    0.0800   10.8885 H   0  0  0  0  0  0  0  0  0  0  0  0
    9.5135    1.3876   11.8562 H   0  0  0  0  0  0  0  0  0  0  0  0
   10.2819   -0.0749   11.6818 H   0  0  0  0  0  0  0  0  0  0  0  0
    6.8856   -1.1398   12.1150 H   0  0  0  0  0  0  0  0  0  0  0  0
    7.3608   -0.3264   15.9225 H   0  0  0  0  0  0  0  0  0  0  0  0
    9.5444   -1.6293   15.5831 H   0  0  0  0  0  0  0  0  0  0  0  0
    8.6885   -3.8940   15.0325 H   0  0  0  0  0  0  0  0  0  0  0  0
    6.0642   -4.0817   15.4013 H   0  0  0  0  0  0  0  0  0  0  0  0
    3.6673   -3.2408   12.5405 H   0  0  0  0  0  0  0  0  0  0  0  0
    3.0944   -3.9738   13.9641 H   0  0  0  0  0  0  0  0  0  0  0  0
    0.8752   -1.8896   10.0152 H   0  0  0  0  0  0  0  0  0  0  0  0
    0.8704   -0.5470   10.0216 H   0  0  0  0  0  0  0  0  0  0  0  0
   -1.4951   -0.4824    8.0574 H   0  0  0  0  0  0  0  0  0  0  0  0
   -1.6281   -2.0028    8.3705 H   0  0  0  0  0  0  0  0  0  0  0  0
   -4.3908   -1.4384    7.7589 H   0  0  0  0  0  0  0  0  0  0  0  0
   -1.7341   -1.0358   12.4026 H   0  0  0  0  0  0  0  0  0  0  0  0
   -1.3371    0.6406   12.4604 H   0  0  0  0  0  0  0  0  0  0  0  0
  1  2  1  0
  2  3  2  0
  2  4  1  0
  4  5  1  0
  5  6  2  0
  6  7  1  0
  7  8  2  0
  8  9  1  0
  9 10  2  0
 10 11  1  0
 11 12  1  0
 12 13  2  0
 12 14  1  0
 14 15  1  0
 15 16  1  0
 16 17  1  0
 17 18  1  0
 18 19  2  0
 19 20  1  0
 20 21  2  0
 21 22  1  0
 10  5  1  0
 22 14  1  0
 21 17  1  0
  1 23  1  0
  1 24  1  0
  1 25  1  0
  4 26  1  0
  6 27  1  0
  7 28  1  0
  8 29  1  0
  9 30  1  0
 11 31  1  0
 11 32  1  0
 15 33  1  0
 15 34  1  0
 16 35  1  0
 16 36  1  0
 18 37  1  0
 22 38  1  0
 22 39  1  0
M  END
>  <Energy>  (150) 
1330.1551536341649

>  <compound_id>  (150) 
76318

>  <target_id>  (150) 
1

>  <reference_id>  (150) 
27

>  <inspiration_ids>  (150) 
[65, 27]

>  <energy_score>  (150) 
1295.8681412090264

>  <distance_score>  (150) 
7.57002254188907

>  <path>  (150) 
/opt/xchem-fragalysis-2/maxwin/BulkDock/SCRATCH/511022/C76318-P27/C76318-P27.minimised.mol

>  <scratch_subdir>  (150) 
/opt/xchem-fragalysis-2/maxwin/BulkDock/SCRATCH/511022/C76318-P27

>  <fragmenstein_runtime>  (150) 
8.92549753189087

>  <fragmenstein_outcome>  (150) 
too moved

>  <fragmenstein_mode>  (150) 
expansion

>  <fragmenstein_error>  (150) 


$$$$
C76315-P65
     RDKit          3D

 42 44  0  0  0  0  0  0  0  0999 V2000
   10.5989   -1.4329   15.5381 C   0  0  0  0  0  0  0  0  0  0  0  0
    9.1176   -1.1099   15.4172 C   0  0  0  0  0  0  0  0  0  0  0  0
    8.6035   -0.3352   16.1727 O   0  0  0  0  0  0  0  0  0  0  0  0
    8.5875   -1.7957   14.2721 N   0  0  0  0  0  0  0  0  0  0  0  0
    7.2930   -1.6944   13.6086 C   0  0  0  0  0  0  0  0  0  0  0  0
    6.4701   -1.9060   12.3263 C   0  0  0  0  0  0  0  0  0  0  0  0
    5.1018   -3.2375   12.1128 C   0  0  0  0  0  0  0  0  0  0  0  0
    3.7227   -3.2416   13.0669 C   0  0  0  0  0  0  0  0  0  0  0  0
    2.9125   -2.3540   11.4711 C   0  0  0  0  0  0  0  0  0  0  0  0
    3.7351   -2.0043   10.7949 O   0  0  0  0  0  0  0  0  0  0  0  0
    1.1806   -2.0821   11.1693 N   0  0  0  0  0  0  0  0  0  0  0  0
    0.3416   -1.3025    9.5830 C   0  0  0  0  0  0  0  0  0  0  0  0
   -1.4915   -1.6316    8.6705 C   0  0  0  0  0  0  0  0  0  0  0  0
   -2.2178   -1.0733    9.6014 N   0  0  0  0  0  0  0  0  0  0  0  0
   -3.5123   -0.5510    9.4586 C   0  0  0  0  0  0  0  0  0  0  0  0
   -3.8286   -0.1187   10.7109 N   0  0  0  0  0  0  0  0  0  0  0  0
   -2.2406    0.1642   11.7741 N   0  0  0  0  0  0  0  0  0  0  0  0
   -1.1703   -0.6754   11.1858 C   0  0  0  0  0  0  0  0  0  0  0  0
    0.5655   -0.9370   11.6995 C   0  0  0  0  0  0  0  0  0  0  0  0
    5.1417   -2.8078   14.5165 C   0  0  0  0  0  0  0  0  0  0  0  0
    6.5410   -2.2930   14.6344 C   0  0  0  0  0  0  0  0  0  0  0  0
   10.8515   -1.5768   16.5858 H   0  0  0  0  0  0  0  0  0  0  0  0
   11.1786   -0.6015   15.1286 H   0  0  0  0  0  0  0  0  0  0  0  0
   10.8795   -2.3540   15.0198 H   0  0  0  0  0  0  0  0  0  0  0  0
    9.3285   -2.3052   13.8239 H   0  0  0  0  0  0  0  0  0  0  0  0
    7.5406   -0.6866   13.3254 H   0  0  0  0  0  0  0  0  0  0  0  0
    7.1970   -1.9689   11.5188 H   0  0  0  0  0  0  0  0  0  0  0  0
    5.9866   -0.9449   12.2233 H   0  0  0  0  0  0  0  0  0  0  0  0
    5.4009   -4.2472   12.1196 H   0  0  0  0  0  0  0  0  0  0  0  0
    4.7225   -3.5424   11.1676 H   0  0  0  0  0  0  0  0  0  0  0  0
    3.3007   -4.2528   13.1583 H   0  0  0  0  0  0  0  0  0  0  0  0
    0.8626   -1.8863    8.8140 H   0  0  0  0  0  0  0  0  0  0  0  0
    1.0922   -0.6143    9.0854 H   0  0  0  0  0  0  0  0  0  0  0  0
   -1.9188   -1.1307    7.7539 H   0  0  0  0  0  0  0  0  0  0  0  0
   -2.0731   -2.5387    8.5225 H   0  0  0  0  0  0  0  0  0  0  0  0
   -4.1488   -0.6537    8.5926 H   0  0  0  0  0  0  0  0  0  0  0  0
    1.2491   -0.2114   12.1836 H   0  0  0  0  0  0  0  0  0  0  0  0
    0.2344   -1.3431   12.6789 H   0  0  0  0  0  0  0  0  0  0  0  0
    4.8695   -2.2280   15.3572 H   0  0  0  0  0  0  0  0  0  0  0  0
    5.0366   -3.5757   15.2915 H   0  0  0  0  0  0  0  0  0  0  0  0
    7.1157   -3.0776   15.0743 H   0  0  0  0  0  0  0  0  0  0  0  0
    6.6930   -1.5649   15.4262 H   0  0  0  0  0  0  0  0  0  0  0  0
  1  2  1  0
  2  3  2  0
  2  4  1  0
  4  5  1  0
  5  6  1  0
  6  7  1  0
  7  8  1  0
  8  9  1  0
  9 10  2  0
  9 11  1  0
 11 12  1  0
 12 13  1  0
 13 14  1  0
 14 15  1  0
 15 16  2  0
 16 17  1  0
 17 18  2  0
 18 19  1  0
  8 20  1  0
 20 21  1  0
 21  5  1  0
 19 11  1  0
 18 14  1  0
  1 22  1  0
  1 23  1  0
  1 24  1  0
  4 25  1  0
  5 26  1  0
  6 27  1  0
  6 28  1  0
  7 29  1  0
  7 30  1  0
  8 31  1  0
 12 32  1  0
 12 33  1  0
 13 34  1  0
 13 35  1  0
 15 36  1  0
 19 37  1  0
 19 38  1  0
 20 39  1  0
 20 40  1  0
 21 41  1  0
 21 42  1  0
M  END
>  <Energy>  (151) 
898.31954918570398

>  <compound_id>  (151) 
76315

>  <target_id>  (151) 
1

>  <reference_id>  (151) 
65

>  <inspiration_ids>  (151) 
[65, 27]

>  <energy_score>  (151) 
882.9918684337455

>  <distance_score>  (151) 
7.846006886853128

>  <path>  (151) 
/opt/xchem-fragalysis-2/maxwin/BulkDock/SCRATCH/511022/C76315-P65/C76315-P65.minimised.mol

>  <scratch_subdir>  (151) 
/opt/xchem-fragalysis-2/maxwin/BulkDock/SCRATCH/511022/C76315-P65

>  <fragmenstein_runtime>  (151) 
11.982960224151611

>  <fragmenstein_outcome>  (151) 
too moved

>  <fragmenstein_mode>  (151) 
expansion

>  <fragmenstein_error>  (151) 


$$$$
C76315-P27
     RDKit          3D

 42 44  0  0  0  0  0  0  0  0999 V2000
    9.0312   -0.4793   15.8106 C   0  0  0  0  0  0  0  0  0  0  0  0
    8.5771   -1.7248   15.0784 C   0  0  0  0  0  0  0  0  0  0  0  0
    9.3919   -2.5191   14.7221 O   0  0  0  0  0  0  0  0  0  0  0  0
    7.1591   -1.6693   14.8553 N   0  0  0  0  0  0  0  0  0  0  0  0
    6.2549   -2.5388   14.0159 C   0  0  0  0  0  0  0  0  0  0  0  0
    6.0013   -2.2379   12.5270 C   0  0  0  0  0  0  0  0  0  0  0  0
    4.5723   -3.4765   11.8310 C   0  0  0  0  0  0  0  0  0  0  0  0
    2.9173   -3.4808   10.8567 C   0  0  0  0  0  0  0  0  0  0  0  0
    1.9226   -3.4787    8.8845 C   0  0  0  0  0  0  0  0  0  0  0  0
    2.2623   -4.2865    8.0603 O   0  0  0  0  0  0  0  0  0  0  0  0
    0.6774   -2.1054    8.4889 N   0  0  0  0  0  0  0  0  0  0  0  0
   -0.2375   -1.5223    6.7924 C   0  0  0  0  0  0  0  0  0  0  0  0
   -2.2182   -0.7987    7.1565 C   0  0  0  0  0  0  0  0  0  0  0  0
   -3.4033   -1.2282    7.9537 N   0  0  0  0  0  0  0  0  0  0  0  0
   -4.6949   -1.4328    7.6218 C   0  0  0  0  0  0  0  0  0  0  0  0
   -4.8169   -2.7208    7.3592 N   0  0  0  0  0  0  0  0  0  0  0  0
   -3.6142   -3.3284    7.7586 N   0  0  0  0  0  0  0  0  0  0  0  0
   -2.9136   -2.3882    8.3865 C   0  0  0  0  0  0  0  0  0  0  0  0
   -1.4068   -1.9688    8.6040 C   0  0  0  0  0  0  0  0  0  0  0  0
    3.2229   -3.4610   12.9404 C   0  0  0  0  0  0  0  0  0  0  0  0
    4.7167   -3.0375   14.3815 C   0  0  0  0  0  0  0  0  0  0  0  0
    8.3471   -0.1854   16.6077 H   0  0  0  0  0  0  0  0  0  0  0  0
    9.1005    0.3387   15.0898 H   0  0  0  0  0  0  0  0  0  0  0  0
   10.0363   -0.6368   16.2076 H   0  0  0  0  0  0  0  0  0  0  0  0
    6.7819   -0.9117   15.3717 H   0  0  0  0  0  0  0  0  0  0  0  0
    6.9217   -3.3127   14.1447 H   0  0  0  0  0  0  0  0  0  0  0  0
    6.9260   -2.1976   11.9161 H   0  0  0  0  0  0  0  0  0  0  0  0
    5.8067   -1.1632   12.3528 H   0  0  0  0  0  0  0  0  0  0  0  0
    5.2943   -3.8581   11.2698 H   0  0  0  0  0  0  0  0  0  0  0  0
    4.5795   -4.5706   12.0492 H   0  0  0  0  0  0  0  0  0  0  0  0
    2.7188   -4.5691   10.9104 H   0  0  0  0  0  0  0  0  0  0  0  0
    0.4795   -2.2025    6.3772 H   0  0  0  0  0  0  0  0  0  0  0  0
    0.1148   -0.9715    5.9633 H   0  0  0  0  0  0  0  0  0  0  0  0
   -2.0250    0.0816    7.7824 H   0  0  0  0  0  0  0  0  0  0  0  0
   -2.7840   -0.6021    6.2088 H   0  0  0  0  0  0  0  0  0  0  0  0
   -5.4387   -0.6640    7.4702 H   0  0  0  0  0  0  0  0  0  0  0  0
   -1.5682   -0.9828    9.1083 H   0  0  0  0  0  0  0  0  0  0  0  0
   -1.6721   -2.2862    7.6124 H   0  0  0  0  0  0  0  0  0  0  0  0
    2.3197   -3.1250   13.4518 H   0  0  0  0  0  0  0  0  0  0  0  0
    3.0159   -4.5415   13.1543 H   0  0  0  0  0  0  0  0  0  0  0  0
    4.7077   -2.2318   15.0606 H   0  0  0  0  0  0  0  0  0  0  0  0
    4.6182   -3.6985   15.2608 H   0  0  0  0  0  0  0  0  0  0  0  0
  1  2  1  0
  2  3  2  0
  2  4  1  0
  4  5  1  0
  5  6  1  0
  6  7  1  0
  7  8  1  0
  8  9  1  0
  9 10  2  0
  9 11  1  0
 11 12  1  0
 12 13  1  0
 13 14  1  0
 14 15  1  0
 15 16  2  0
 16 17  1  0
 17 18  2  0
 18 19  1  0
  8 20  1  0
 20 21  1  0
 21  5  1  0
 19 11  1  0
 18 14  1  0
  1 22  1  0
  1 23  1  0
  1 24  1  0
  4 25  1  0
  5 26  1  0
  6 27  1  0
  6 28  1  0
  7 29  1  0
  7 30  1  0
  8 31  1  0
 12 32  1  0
 12 33  1  0
 13 34  1  0
 13 35  1  0
 15 36  1  0
 19 37  1  0
 19 38  1  0
 20 39  1  0
 20 40  1  0
 21 41  1  0
 21 42  1  0
M  END
>  <Energy>  (152) 
1436.8011260177975

>  <compound_id>  (152) 
76315

>  <target_id>  (152) 
1

>  <reference_id>  (152) 
27

>  <inspiration_ids>  (152) 
[65, 27]

>  <energy_score>  (152) 
1421.4734452658347

>  <distance_score>  (152) 
8.075125628877615

>  <path>  (152) 
/opt/xchem-fragalysis-2/maxwin/BulkDock/SCRATCH/511022/C76315-P27/C76315-P27.minimised.mol

>  <scratch_subdir>  (152) 
/opt/xchem-fragalysis-2/maxwin/BulkDock/SCRATCH/511022/C76315-P27

>  <fragmenstein_runtime>  (152) 
12.840070962905884

>  <fragmenstein_outcome>  (152) 
too moved

>  <fragmenstein_mode>  (152) 
expansion

>  <fragmenstein_error>  (152) 


$$$$
C46094-P64
     RDKit          3D

 45 47  0  0  0  0  0  0  0  0999 V2000
  -15.5105  -27.2175   27.1923 C   0  0  0  0  0  0  0  0  0  0  0  0
  -16.2428  -26.1504   26.5592 N   0  0  0  0  0  0  0  0  0  0  0  0
  -17.4966  -25.7545   26.9329 C   0  0  0  0  0  0  0  0  0  0  0  0
  -17.8325  -24.7443   26.0676 C   0  0  0  0  0  0  0  0  0  0  0  0
  -16.8268  -24.5205   25.1703 N   0  0  0  0  0  0  0  0  0  0  0  0
  -15.8662  -25.3660   25.4960 C   0  0  0  0  0  0  0  0  0  0  0  0
  -14.5355  -25.4175   24.8160 C   0  0  0  0  0  0  0  0  0  0  0  0
  -13.4426  -25.0824   25.7533 N   0  0  0  0  0  0  0  0  0  0  0  0
  -13.7001  -23.6619   25.1885 C   0  0  0  0  0  0  0  0  0  0  0  0
  -13.3332  -22.9264   23.8764 C   0  0  0  0  0  0  0  0  0  0  0  0
  -11.9299  -22.8203   23.7182 O   0  0  0  0  0  0  0  0  0  0  0  0
  -12.0473  -25.3900   25.7089 C   0  0  0  0  0  0  0  0  0  0  0  0
  -11.3920  -25.9221   24.8531 O   0  0  0  0  0  0  0  0  0  0  0  0
  -11.3546  -25.0526   27.0319 C   0  0  0  0  0  0  0  0  0  0  0  0
  -11.7017  -23.7155   27.6492 C   0  0  0  0  0  0  0  0  0  0  0  0
  -11.3484  -23.5523   29.0585 C   0  0  0  0  0  0  0  0  0  0  0  0
  -11.7155  -22.5134   29.8884 C   0  0  0  0  0  0  0  0  0  0  0  0
  -11.5697  -23.0235   31.1466 N   0  0  0  0  0  0  0  0  0  0  0  0
  -12.1212  -22.5881   32.3392 C   0  0  0  0  0  0  0  0  0  0  0  0
  -12.0118  -23.3913   33.4045 C   0  0  0  0  0  0  0  0  0  0  0  0
  -11.1845  -24.5895   33.3178 C   0  0  0  0  0  0  0  0  0  0  0  0
  -10.5561  -24.9269   32.1809 C   0  0  0  0  0  0  0  0  0  0  0  0
  -10.8550  -24.2076   31.0071 C   0  0  0  0  0  0  0  0  0  0  0  0
  -10.6925  -24.5316   29.7439 N   0  0  0  0  0  0  0  0  0  0  0  0
  -15.8001  -28.1553   26.7115 H   0  0  0  0  0  0  0  0  0  0  0  0
  -14.4379  -27.0614   27.0873 H   0  0  0  0  0  0  0  0  0  0  0  0
  -15.7706  -27.2481   28.2537 H   0  0  0  0  0  0  0  0  0  0  0  0
  -18.0242  -26.2010   27.7643 H   0  0  0  0  0  0  0  0  0  0  0  0
  -18.7494  -24.1695   26.0444 H   0  0  0  0  0  0  0  0  0  0  0  0
  -14.3513  -26.4757   24.6206 H   0  0  0  0  0  0  0  0  0  0  0  0
  -14.5502  -25.0434   23.7898 H   0  0  0  0  0  0  0  0  0  0  0  0
  -14.6793  -23.2838   25.5012 H   0  0  0  0  0  0  0  0  0  0  0  0
  -12.9846  -23.1623   25.8111 H   0  0  0  0  0  0  0  0  0  0  0  0
  -13.7150  -21.9055   23.9534 H   0  0  0  0  0  0  0  0  0  0  0  0
  -13.8042  -23.3384   22.9887 H   0  0  0  0  0  0  0  0  0  0  0  0
  -11.7255  -22.3163   22.9083 H   0  0  0  0  0  0  0  0  0  0  0  0
  -10.2729  -25.0851   26.8762 H   0  0  0  0  0  0  0  0  0  0  0  0
  -11.5861  -25.8829   27.7078 H   0  0  0  0  0  0  0  0  0  0  0  0
  -11.2955  -22.8905   27.0658 H   0  0  0  0  0  0  0  0  0  0  0  0
  -12.7830  -23.6223   27.6764 H   0  0  0  0  0  0  0  0  0  0  0  0
  -12.1695  -21.5619   29.6955 H   0  0  0  0  0  0  0  0  0  0  0  0
  -12.7078  -21.6854   32.3410 H   0  0  0  0  0  0  0  0  0  0  0  0
  -12.4953  -23.1551   34.3399 H   0  0  0  0  0  0  0  0  0  0  0  0
  -11.0828  -25.2096   34.2019 H   0  0  0  0  0  0  0  0  0  0  0  0
   -9.9599  -25.8189   32.0813 H   0  0  0  0  0  0  0  0  0  0  0  0
  1  2  1  0
  2  3  1  0
  3  4  2  0
  4  5  1  0
  5  6  2  0
  6  7  1  0
  7  8  1  0
  8  9  1  0
  9 10  1  0
 10 11  1  0
  8 12  1  0
 12 13  2  0
 12 14  1  0
 14 15  1  0
 15 16  1  0
 16 17  2  0
 17 18  1  0
 18 19  1  0
 19 20  2  0
 20 21  1  0
 21 22  2  0
 22 23  1  0
 23 24  2  0
  6  2  1  0
 24 16  1  0
 23 18  1  0
  1 25  1  0
  1 26  1  0
  1 27  1  0
  3 28  1  0
  4 29  1  0
  7 30  1  0
  7 31  1  0
  9 32  1  0
  9 33  1  0
 10 34  1  0
 10 35  1  0
 11 36  1  0
 14 37  1  0
 14 38  1  0
 15 39  1  0
 15 40  1  0
 17 41  1  0
 19 42  1  0
 20 43  1  0
 21 44  1  0
 22 45  1  0
M  END
>  <Energy>  (153) 
126.36155811732692

>  <compound_id>  (153) 
46094

>  <target_id>  (153) 
1

>  <reference_id>  (153) 
64

>  <inspiration_ids>  (153) 
[64, 52]

>  <energy_score>  (153) 
58.28215872934152

>  <distance_score>  (153) 
3.708347919038538

>  <path>  (153) 
/opt/xchem-fragalysis-2/maxwin/BulkDock/SCRATCH/511022/C46094-P64/C46094-P64.minimised.mol

>  <scratch_subdir>  (153) 
/opt/xchem-fragalysis-2/maxwin/BulkDock/SCRATCH/511022/C46094-P64

>  <fragmenstein_runtime>  (153) 
13.04693078994751

>  <fragmenstein_outcome>  (153) 
too moved

>  <fragmenstein_mode>  (153) 
expansion

>  <fragmenstein_error>  (153) 


$$$$
C46094-P52
     RDKit          3D

 45 47  0  0  0  0  0  0  0  0999 V2000
  -12.9349  -29.4096   31.1262 C   0  0  0  0  0  0  0  0  0  0  0  0
  -13.9644  -28.4675   30.7664 N   0  0  0  0  0  0  0  0  0  0  0  0
  -15.1544  -28.3209   31.4161 C   0  0  0  0  0  0  0  0  0  0  0  0
  -15.8192  -27.3295   30.7396 C   0  0  0  0  0  0  0  0  0  0  0  0
  -15.0635  -26.8655   29.7009 N   0  0  0  0  0  0  0  0  0  0  0  0
  -13.9451  -27.5758   29.7233 C   0  0  0  0  0  0  0  0  0  0  0  0
  -12.8109  -27.4895   28.7380 C   0  0  0  0  0  0  0  0  0  0  0  0
  -12.7707  -26.1566   28.0843 N   0  0  0  0  0  0  0  0  0  0  0  0
  -13.6380  -26.9038   27.0198 C   0  0  0  0  0  0  0  0  0  0  0  0
  -14.4243  -25.9666   26.0730 C   0  0  0  0  0  0  0  0  0  0  0  0
  -13.7028  -25.8131   24.8590 O   0  0  0  0  0  0  0  0  0  0  0  0
  -11.6993  -25.4653   27.4493 C   0  0  0  0  0  0  0  0  0  0  0  0
  -10.5797  -25.8208   27.2011 O   0  0  0  0  0  0  0  0  0  0  0  0
  -12.1233  -24.0333   27.1747 C   0  0  0  0  0  0  0  0  0  0  0  0
  -11.1746  -23.0301   27.8239 C   0  0  0  0  0  0  0  0  0  0  0  0
  -11.1775  -23.0711   29.3174 C   0  0  0  0  0  0  0  0  0  0  0  0
  -11.9726  -22.3925   30.2178 C   0  0  0  0  0  0  0  0  0  0  0  0
  -11.4816  -22.6977   31.4636 N   0  0  0  0  0  0  0  0  0  0  0  0
  -11.8764  -22.2353   32.7144 C   0  0  0  0  0  0  0  0  0  0  0  0
  -11.2057  -22.6467   33.8030 C   0  0  0  0  0  0  0  0  0  0  0  0
  -10.0823  -23.5560   33.6360 C   0  0  0  0  0  0  0  0  0  0  0  0
   -9.7217  -24.0167   32.4232 C   0  0  0  0  0  0  0  0  0  0  0  0
  -10.4303  -23.5840   31.2675 C   0  0  0  0  0  0  0  0  0  0  0  0
  -10.2467  -23.8313   29.9880 N   0  0  0  0  0  0  0  0  0  0  0  0
  -12.5418  -29.8743   30.2193 H   0  0  0  0  0  0  0  0  0  0  0  0
  -12.1508  -28.8687   31.6597 H   0  0  0  0  0  0  0  0  0  0  0  0
  -13.3604  -30.1813   31.7732 H   0  0  0  0  0  0  0  0  0  0  0  0
  -15.4302  -28.9073   32.2817 H   0  0  0  0  0  0  0  0  0  0  0  0
  -16.7971  -26.9221   30.9623 H   0  0  0  0  0  0  0  0  0  0  0  0
  -11.9016  -27.4481   29.3600 H   0  0  0  0  0  0  0  0  0  0  0  0
  -12.6113  -28.4042   28.1535 H   0  0  0  0  0  0  0  0  0  0  0  0
  -12.9744  -27.5045   26.3815 H   0  0  0  0  0  0  0  0  0  0  0  0
  -14.4492  -27.5336   27.4165 H   0  0  0  0  0  0  0  0  0  0  0  0
  -14.6441  -24.9930   26.5132 H   0  0  0  0  0  0  0  0  0  0  0  0
  -15.3762  -26.4395   25.8067 H   0  0  0  0  0  0  0  0  0  0  0  0
  -14.2301  -25.2553   24.2546 H   0  0  0  0  0  0  0  0  0  0  0  0
  -12.1495  -23.8831   26.0912 H   0  0  0  0  0  0  0  0  0  0  0  0
  -13.1238  -23.8720   27.5746 H   0  0  0  0  0  0  0  0  0  0  0  0
  -10.1514  -23.1977   27.4689 H   0  0  0  0  0  0  0  0  0  0  0  0
  -11.4550  -22.0197   27.5010 H   0  0  0  0  0  0  0  0  0  0  0  0
  -12.7930  -21.7080   30.1010 H   0  0  0  0  0  0  0  0  0  0  0  0
  -12.7305  -21.5723   32.7634 H   0  0  0  0  0  0  0  0  0  0  0  0
  -11.4924  -22.3311   34.8018 H   0  0  0  0  0  0  0  0  0  0  0  0
   -9.5282  -23.8564   34.5193 H   0  0  0  0  0  0  0  0  0  0  0  0
   -8.8774  -24.6869   32.3052 H   0  0  0  0  0  0  0  0  0  0  0  0
  1  2  1  0
  2  3  1  0
  3  4  2  0
  4  5  1  0
  5  6  2  0
  6  7  1  0
  7  8  1  0
  8  9  1  0
  9 10  1  0
 10 11  1  0
  8 12  1  0
 12 13  2  0
 12 14  1  0
 14 15  1  0
 15 16  1  0
 16 17  2  0
 17 18  1  0
 18 19  1  0
 19 20  2  0
 20 21  1  0
 21 22  2  0
 22 23  1  0
 23 24  2  0
  6  2  1  0
 24 16  1  0
 23 18  1  0
  1 25  1  0
  1 26  1  0
  1 27  1  0
  3 28  1  0
  4 29  1  0
  7 30  1  0
  7 31  1  0
  9 32  1  0
  9 33  1  0
 10 34  1  0
 10 35  1  0
 11 36  1  0
 14 37  1  0
 14 38  1  0
 15 39  1  0
 15 40  1  0
 17 41  1  0
 19 42  1  0
 20 43  1  0
 21 44  1  0
 22 45  1  0
M  END
>  <Energy>  (154) 
104.24914156383949

>  <compound_id>  (154) 
46094

>  <target_id>  (154) 
1

>  <reference_id>  (154) 
52

>  <inspiration_ids>  (154) 
[64, 52]

>  <energy_score>  (154) 
36.16974217584965

>  <distance_score>  (154) 
3.488190996743482

>  <path>  (154) 
/opt/xchem-fragalysis-2/maxwin/BulkDock/SCRATCH/511022/C46094-P52/C46094-P52.minimised.mol

>  <scratch_subdir>  (154) 
/opt/xchem-fragalysis-2/maxwin/BulkDock/SCRATCH/511022/C46094-P52

>  <fragmenstein_runtime>  (154) 
20.057852029800415

>  <fragmenstein_outcome>  (154) 
too moved

>  <fragmenstein_mode>  (154) 
expansion

>  <fragmenstein_error>  (154) 


$$$$
C46096-P64
     RDKit          3D

 30 33  0  0  0  0  0  0  0  0999 V2000
  -11.0598  -24.4130   25.3810 C   0  0  0  0  0  0  0  0  0  0  0  0
  -12.1655  -25.0234   26.0289 N   0  0  0  0  0  0  0  0  0  0  0  0
  -12.8362  -26.1188   25.5779 C   0  0  0  0  0  0  0  0  0  0  0  0
  -13.9073  -26.2429   26.4152 C   0  0  0  0  0  0  0  0  0  0  0  0
  -13.8332  -25.3035   27.3969 N   0  0  0  0  0  0  0  0  0  0  0  0
  -12.7379  -24.5933   27.1792 C   0  0  0  0  0  0  0  0  0  0  0  0
  -12.2337  -23.4716   28.1695 C   0  0  0  0  0  0  0  0  0  0  0  0
  -11.1709  -22.6771   28.0258 N   0  0  0  0  0  0  0  0  0  0  0  0
  -11.1288  -21.9692   29.2400 O   0  0  0  0  0  0  0  0  0  0  0  0
  -12.1189  -22.4792   30.0287 C   0  0  0  0  0  0  0  0  0  0  0  0
  -12.1898  -22.4652   31.4543 C   0  0  0  0  0  0  0  0  0  0  0  0
  -11.2898  -23.1164   32.2754 C   0  0  0  0  0  0  0  0  0  0  0  0
  -11.8831  -23.5358   33.4318 N   0  0  0  0  0  0  0  0  0  0  0  0
  -13.1442  -23.1985   33.3103 C   0  0  0  0  0  0  0  0  0  0  0  0
  -14.3217  -23.6479   33.9687 C   0  0  0  0  0  0  0  0  0  0  0  0
  -15.4873  -23.0024   33.8147 C   0  0  0  0  0  0  0  0  0  0  0  0
  -15.5933  -21.9042   32.8917 C   0  0  0  0  0  0  0  0  0  0  0  0
  -14.5643  -21.6886   32.0584 C   0  0  0  0  0  0  0  0  0  0  0  0
  -13.3388  -22.3467   32.2328 N   0  0  0  0  0  0  0  0  0  0  0  0
  -12.9223  -23.2340   29.3230 N   0  0  0  0  0  0  0  0  0  0  0  0
  -10.2981  -24.2177   26.1309 H   0  0  0  0  0  0  0  0  0  0  0  0
  -11.4290  -23.5220   24.8758 H   0  0  0  0  0  0  0  0  0  0  0  0
  -10.6628  -25.1006   24.6462 H   0  0  0  0  0  0  0  0  0  0  0  0
  -12.5202  -26.6888   24.7172 H   0  0  0  0  0  0  0  0  0  0  0  0
  -14.7119  -26.9644   26.3866 H   0  0  0  0  0  0  0  0  0  0  0  0
  -10.2961  -23.4697   32.0388 H   0  0  0  0  0  0  0  0  0  0  0  0
  -14.2887  -24.5714   34.5238 H   0  0  0  0  0  0  0  0  0  0  0  0
  -16.3858  -23.3740   34.2953 H   0  0  0  0  0  0  0  0  0  0  0  0
  -16.5485  -21.4049   32.7784 H   0  0  0  0  0  0  0  0  0  0  0  0
  -14.7056  -21.0374   31.2259 H   0  0  0  0  0  0  0  0  0  0  0  0
  1  2  1  0
  2  3  1  0
  3  4  2  0
  4  5  1  0
  5  6  2  0
  6  7  1  0
  7  8  2  0
  8  9  1  0
  9 10  1  0
 10 11  1  0
 11 12  2  0
 12 13  1  0
 13 14  2  0
 14 15  1  0
 15 16  2  0
 16 17  1  0
 17 18  2  0
 18 19  1  0
 10 20  2  0
  6  2  1  0
 20  7  1  0
 19 11  1  0
 19 14  1  0
  1 21  1  0
  1 22  1  0
  1 23  1  0
  3 24  1  0
  4 25  1  0
 12 26  1  0
 15 27  1  0
 16 28  1  0
 17 29  1  0
 18 30  1  0
M  END
>  <Energy>  (155) 
71.959269452171384

>  <compound_id>  (155) 
46096

>  <target_id>  (155) 
1

>  <reference_id>  (155) 
64

>  <inspiration_ids>  (155) 
[64, 52]

>  <energy_score>  (155) 
-18.27627419627052

>  <distance_score>  (155) 
3.7444058743878768

>  <path>  (155) 
/opt/xchem-fragalysis-2/maxwin/BulkDock/SCRATCH/511022/C46096-P64/C46096-P64.minimised.mol

>  <scratch_subdir>  (155) 
/opt/xchem-fragalysis-2/maxwin/BulkDock/SCRATCH/511022/C46096-P64

>  <fragmenstein_runtime>  (155) 
8.484964847564697

>  <fragmenstein_outcome>  (155) 
too moved

>  <fragmenstein_mode>  (155) 
expansion

>  <fragmenstein_error>  (155) 


$$$$
C46096-P52
     RDKit          3D

 30 33  0  0  0  0  0  0  0  0999 V2000
  -13.5113  -24.7911   25.7446 C   0  0  0  0  0  0  0  0  0  0  0  0
  -12.9426  -25.7019   26.7076 N   0  0  0  0  0  0  0  0  0  0  0  0
  -13.2083  -27.0350   26.7742 C   0  0  0  0  0  0  0  0  0  0  0  0
  -12.6784  -27.4638   27.9664 C   0  0  0  0  0  0  0  0  0  0  0  0
  -12.1627  -26.4210   28.6616 N   0  0  0  0  0  0  0  0  0  0  0  0
  -12.3485  -25.3685   27.8893 C   0  0  0  0  0  0  0  0  0  0  0  0
  -12.1035  -23.9251   28.3400 C   0  0  0  0  0  0  0  0  0  0  0  0
  -12.0628  -22.8935   27.4936 N   0  0  0  0  0  0  0  0  0  0  0  0
  -11.9888  -21.8087   28.3330 O   0  0  0  0  0  0  0  0  0  0  0  0
  -12.0376  -22.2966   29.6120 C   0  0  0  0  0  0  0  0  0  0  0  0
  -11.7940  -21.4770   30.7217 C   0  0  0  0  0  0  0  0  0  0  0  0
  -11.0173  -20.3566   30.6764 C   0  0  0  0  0  0  0  0  0  0  0  0
  -10.3079  -20.2379   31.8392 N   0  0  0  0  0  0  0  0  0  0  0  0
  -10.4844  -21.4038   32.4134 C   0  0  0  0  0  0  0  0  0  0  0  0
   -9.8127  -22.2102   33.3634 C   0  0  0  0  0  0  0  0  0  0  0  0
  -10.5854  -22.9215   34.1977 C   0  0  0  0  0  0  0  0  0  0  0  0
  -12.0214  -22.7213   34.1455 C   0  0  0  0  0  0  0  0  0  0  0  0
  -12.5700  -22.2714   33.0053 C   0  0  0  0  0  0  0  0  0  0  0  0
  -11.7241  -21.8312   32.0328 N   0  0  0  0  0  0  0  0  0  0  0  0
  -12.0746  -23.6024   29.6601 N   0  0  0  0  0  0  0  0  0  0  0  0
  -12.7782  -24.0380   25.4675 H   0  0  0  0  0  0  0  0  0  0  0  0
  -14.3989  -24.3351   26.1865 H   0  0  0  0  0  0  0  0  0  0  0  0
  -13.8174  -25.3570   24.8624 H   0  0  0  0  0  0  0  0  0  0  0  0
  -13.7496  -27.5559   26.0023 H   0  0  0  0  0  0  0  0  0  0  0  0
  -12.6798  -28.4689   28.3682 H   0  0  0  0  0  0  0  0  0  0  0  0
  -10.7473  -19.7858   29.8026 H   0  0  0  0  0  0  0  0  0  0  0  0
   -8.7342  -22.2497   33.3827 H   0  0  0  0  0  0  0  0  0  0  0  0
  -10.1629  -23.5686   34.9555 H   0  0  0  0  0  0  0  0  0  0  0  0
  -12.6178  -22.9452   35.0174 H   0  0  0  0  0  0  0  0  0  0  0  0
  -13.6147  -22.0911   32.8401 H   0  0  0  0  0  0  0  0  0  0  0  0
  1  2  1  0
  2  3  1  0
  3  4  2  0
  4  5  1  0
  5  6  2  0
  6  7  1  0
  7  8  2  0
  8  9  1  0
  9 10  1  0
 10 11  1  0
 11 12  2  0
 12 13  1  0
 13 14  2  0
 14 15  1  0
 15 16  2  0
 16 17  1  0
 17 18  2  0
 18 19  1  0
 10 20  2  0
  6  2  1  0
 20  7  1  0
 19 11  1  0
 19 14  1  0
  1 21  1  0
  1 22  1  0
  1 23  1  0
  3 24  1  0
  4 25  1  0
 12 26  1  0
 15 27  1  0
 16 28  1  0
 17 29  1  0
 18 30  1  0
M  END
>  <Energy>  (156) 
97.421709573836537

>  <compound_id>  (156) 
46096

>  <target_id>  (156) 
1

>  <reference_id>  (156) 
52

>  <inspiration_ids>  (156) 
[64, 52]

>  <energy_score>  (156) 
9.028564556708488

>  <distance_score>  (156) 
2.5040397609839458

>  <path>  (156) 
/opt/xchem-fragalysis-2/maxwin/BulkDock/SCRATCH/511022/C46096-P52/C46096-P52.minimised.mol

>  <scratch_subdir>  (156) 
/opt/xchem-fragalysis-2/maxwin/BulkDock/SCRATCH/511022/C46096-P52

>  <fragmenstein_runtime>  (156) 
3.8288984298706055

>  <fragmenstein_outcome>  (156) 
too moved

>  <fragmenstein_mode>  (156) 
expansion

>  <fragmenstein_error>  (156) 


$$$$
C46101-P64
     RDKit          3D

 35 37  0  0  0  0  0  0  0  0999 V2000
  -12.6631  -24.3449   25.6474 C   0  0  0  0  0  0  0  0  0  0  0  0
  -12.0571  -25.4086   26.4645 C   0  0  0  0  0  0  0  0  0  0  0  0
  -12.4108  -26.7111   26.3376 N   0  0  0  0  0  0  0  0  0  0  0  0
  -11.7849  -27.3914   27.3215 C   0  0  0  0  0  0  0  0  0  0  0  0
  -10.9622  -26.6458   27.9983 N   0  0  0  0  0  0  0  0  0  0  0  0
  -11.1077  -25.4091   27.4620 C   0  0  0  0  0  0  0  0  0  0  0  0
  -10.2990  -24.3331   28.0047 C   0  0  0  0  0  0  0  0  0  0  0  0
  -11.1237  -23.0965   28.1261 C   0  0  0  0  0  0  0  0  0  0  0  0
  -11.1750  -22.3358   27.2677 O   0  0  0  0  0  0  0  0  0  0  0  0
  -11.7030  -23.0448   29.5051 N   0  0  0  0  0  0  0  0  0  0  0  0
  -12.5377  -22.1082   30.0987 C   0  0  0  0  0  0  0  0  0  0  0  0
  -12.2203  -21.7237   31.4380 C   0  0  0  0  0  0  0  0  0  0  0  0
  -10.9513  -21.6602   31.8907 C   0  0  0  0  0  0  0  0  0  0  0  0
  -11.0436  -22.8725   32.5072 N   0  0  0  0  0  0  0  0  0  0  0  0
  -10.2208  -23.9783   32.4825 C   0  0  0  0  0  0  0  0  0  0  0  0
  -10.6432  -25.0499   33.1382 C   0  0  0  0  0  0  0  0  0  0  0  0
  -11.8094  -24.9671   33.9546 C   0  0  0  0  0  0  0  0  0  0  0  0
  -12.6833  -23.9570   33.8200 C   0  0  0  0  0  0  0  0  0  0  0  0
  -12.3316  -22.8680   33.0368 C   0  0  0  0  0  0  0  0  0  0  0  0
  -13.0574  -21.9441   32.4632 N   0  0  0  0  0  0  0  0  0  0  0  0
  -11.9126  -23.8402   25.0348 H   0  0  0  0  0  0  0  0  0  0  0  0
  -13.1279  -23.6150   26.2972 H   0  0  0  0  0  0  0  0  0  0  0  0
  -13.4655  -24.7323   25.0132 H   0  0  0  0  0  0  0  0  0  0  0  0
  -13.0486  -27.1176   25.6700 H   0  0  0  0  0  0  0  0  0  0  0  0
  -11.9707  -28.4299   27.5183 H   0  0  0  0  0  0  0  0  0  0  0  0
   -9.8319  -24.6151   28.9527 H   0  0  0  0  0  0  0  0  0  0  0  0
   -9.4946  -24.1064   27.3145 H   0  0  0  0  0  0  0  0  0  0  0  0
  -11.3926  -23.8567   30.0329 H   0  0  0  0  0  0  0  0  0  0  0  0
  -12.4010  -21.2341   29.4626 H   0  0  0  0  0  0  0  0  0  0  0  0
  -13.5036  -22.5722   30.1112 H   0  0  0  0  0  0  0  0  0  0  0  0
  -10.0766  -21.2828   31.4349 H   0  0  0  0  0  0  0  0  0  0  0  0
   -9.3491  -24.0280   31.8610 H   0  0  0  0  0  0  0  0  0  0  0  0
  -10.2287  -26.0137   32.9589 H   0  0  0  0  0  0  0  0  0  0  0  0
  -12.0502  -25.8398   34.5490 H   0  0  0  0  0  0  0  0  0  0  0  0
  -13.6818  -23.9682   34.2365 H   0  0  0  0  0  0  0  0  0  0  0  0
  1  2  1  0
  2  3  1  0
  3  4  1  0
  4  5  2  0
  5  6  1  0
  6  7  1  0
  7  8  1  0
  8  9  2  0
  8 10  1  0
 10 11  1  0
 11 12  1  0
 12 13  2  0
 13 14  1  0
 14 15  1  0
 15 16  2  0
 16 17  1  0
 17 18  2  0
 18 19  1  0
 19 20  2  0
  6  2  2  0
 20 12  1  0
 19 14  1  0
  1 21  1  0
  1 22  1  0
  1 23  1  0
  3 24  1  0
  4 25  1  0
  7 26  1  0
  7 27  1  0
 10 28  1  0
 11 29  1  0
 11 30  1  0
 13 31  1  0
 15 32  1  0
 16 33  1  0
 17 34  1  0
 18 35  1  0
M  END
>  <Energy>  (157) 
108.37411970497438

>  <compound_id>  (157) 
46101

>  <target_id>  (157) 
1

>  <reference_id>  (157) 
64

>  <inspiration_ids>  (157) 
[64, 52]

>  <energy_score>  (157) 
60.47353763720784

>  <distance_score>  (157) 
2.65310818324727

>  <path>  (157) 
/opt/xchem-fragalysis-2/maxwin/BulkDock/SCRATCH/511022/C46101-P64/C46101-P64.minimised.mol

>  <scratch_subdir>  (157) 
/opt/xchem-fragalysis-2/maxwin/BulkDock/SCRATCH/511022/C46101-P64

>  <fragmenstein_runtime>  (157) 
6.422419309616089

>  <fragmenstein_outcome>  (157) 
too moved

>  <fragmenstein_mode>  (157) 
expansion

>  <fragmenstein_error>  (157) 


$$$$
C46101-P52
     RDKit          3D

 35 37  0  0  0  0  0  0  0  0999 V2000
  -11.2071  -25.6969   29.1804 C   0  0  0  0  0  0  0  0  0  0  0  0
  -12.0439  -25.7884   27.9672 C   0  0  0  0  0  0  0  0  0  0  0  0
  -12.9159  -26.8286   27.7896 N   0  0  0  0  0  0  0  0  0  0  0  0
  -13.6116  -26.6019   26.6442 C   0  0  0  0  0  0  0  0  0  0  0  0
  -13.2283  -25.4969   26.0617 N   0  0  0  0  0  0  0  0  0  0  0  0
  -12.1916  -25.0136   26.8260 C   0  0  0  0  0  0  0  0  0  0  0  0
  -11.4513  -23.8456   26.2919 C   0  0  0  0  0  0  0  0  0  0  0  0
  -10.7120  -23.1037   27.3694 C   0  0  0  0  0  0  0  0  0  0  0  0
   -9.6638  -23.4378   27.7360 O   0  0  0  0  0  0  0  0  0  0  0  0
  -11.6085  -21.9601   27.8417 N   0  0  0  0  0  0  0  0  0  0  0  0
  -11.4509  -21.0515   28.9161 C   0  0  0  0  0  0  0  0  0  0  0  0
  -11.6526  -21.7837   30.1775 C   0  0  0  0  0  0  0  0  0  0  0  0
  -12.6001  -21.6074   31.1540 C   0  0  0  0  0  0  0  0  0  0  0  0
  -12.0189  -22.1488   32.2673 N   0  0  0  0  0  0  0  0  0  0  0  0
  -12.3011  -21.9152   33.5920 C   0  0  0  0  0  0  0  0  0  0  0  0
  -11.4742  -22.4228   34.5115 C   0  0  0  0  0  0  0  0  0  0  0  0
  -10.3767  -23.2859   34.1262 C   0  0  0  0  0  0  0  0  0  0  0  0
  -10.1183  -23.5212   32.8315 C   0  0  0  0  0  0  0  0  0  0  0  0
  -10.9224  -22.8770   31.8523 C   0  0  0  0  0  0  0  0  0  0  0  0
  -10.7365  -22.7234   30.5722 N   0  0  0  0  0  0  0  0  0  0  0  0
  -10.1644  -25.4808   28.9464 H   0  0  0  0  0  0  0  0  0  0  0  0
  -11.2326  -26.6343   29.7443 H   0  0  0  0  0  0  0  0  0  0  0  0
  -11.6054  -24.9251   29.8385 H   0  0  0  0  0  0  0  0  0  0  0  0
  -13.0494  -27.6124   28.4114 H   0  0  0  0  0  0  0  0  0  0  0  0
  -14.3855  -27.2672   26.2888 H   0  0  0  0  0  0  0  0  0  0  0  0
  -12.1248  -23.1749   25.7469 H   0  0  0  0  0  0  0  0  0  0  0  0
  -10.7114  -24.1866   25.5612 H   0  0  0  0  0  0  0  0  0  0  0  0
  -12.4922  -22.0044   27.3588 H   0  0  0  0  0  0  0  0  0  0  0  0
  -10.4219  -20.6933   28.8885 H   0  0  0  0  0  0  0  0  0  0  0  0
  -12.1287  -20.2121   28.8331 H   0  0  0  0  0  0  0  0  0  0  0  0
  -13.4935  -21.0093   31.2267 H   0  0  0  0  0  0  0  0  0  0  0  0
  -13.1420  -21.2787   33.8334 H   0  0  0  0  0  0  0  0  0  0  0  0
  -11.5968  -22.1609   35.5431 H   0  0  0  0  0  0  0  0  0  0  0  0
   -9.7610  -23.7263   34.8999 H   0  0  0  0  0  0  0  0  0  0  0  0
   -9.2818  -24.1327   32.5108 H   0  0  0  0  0  0  0  0  0  0  0  0
  1  2  1  0
  2  3  1  0
  3  4  1  0
  4  5  2  0
  5  6  1  0
  6  7  1  0
  7  8  1  0
  8  9  2  0
  8 10  1  0
 10 11  1  0
 11 12  1  0
 12 13  2  0
 13 14  1  0
 14 15  1  0
 15 16  2  0
 16 17  1  0
 17 18  2  0
 18 19  1  0
 19 20  2  0
  6  2  2  0
 20 12  1  0
 19 14  1  0
  1 21  1  0
  1 22  1  0
  1 23  1  0
  3 24  1  0
  4 25  1  0
  7 26  1  0
  7 27  1  0
 10 28  1  0
 11 29  1  0
 11 30  1  0
 13 31  1  0
 15 32  1  0
 16 33  1  0
 17 34  1  0
 18 35  1  0
M  END
>  <Energy>  (158) 
58.451560896710049

>  <compound_id>  (158) 
46101

>  <target_id>  (158) 
1

>  <reference_id>  (158) 
52

>  <inspiration_ids>  (158) 
[64, 52]

>  <energy_score>  (158) 
10.550978828943386

>  <distance_score>  (158) 
2.2141018855828722

>  <path>  (158) 
/opt/xchem-fragalysis-2/maxwin/BulkDock/SCRATCH/511022/C46101-P52/C46101-P52.minimised.mol

>  <scratch_subdir>  (158) 
/opt/xchem-fragalysis-2/maxwin/BulkDock/SCRATCH/511022/C46101-P52

>  <fragmenstein_runtime>  (158) 
4.837937116622925

>  <fragmenstein_outcome>  (158) 
too moved

>  <fragmenstein_mode>  (158) 
expansion

>  <fragmenstein_error>  (158) 


$$$$
C46102-P64
     RDKit          3D

 47 51  0  0  0  0  0  0  0  0999 V2000
   -8.8240  -24.9703   30.3665 C   0  0  0  0  0  0  0  0  0  0  0  0
   -8.7240  -26.0046   31.3254 C   0  0  0  0  0  0  0  0  0  0  0  0
   -9.3390  -27.1352   30.9662 C   0  0  0  0  0  0  0  0  0  0  0  0
   -9.9742  -27.0275   29.7356 N   0  0  0  0  0  0  0  0  0  0  0  0
  -11.0332  -26.1349   29.5755 C   0  0  0  0  0  0  0  0  0  0  0  0
  -11.2607  -24.9586   30.6060 C   0  0  0  0  0  0  0  0  0  0  0  0
  -11.0047  -25.1171   31.9162 N   0  0  0  0  0  0  0  0  0  0  0  0
  -11.3687  -24.0073   32.5994 C   0  0  0  0  0  0  0  0  0  0  0  0
  -11.6884  -23.0301   31.7161 C   0  0  0  0  0  0  0  0  0  0  0  0
  -11.6855  -23.6540   30.4641 N   0  0  0  0  0  0  0  0  0  0  0  0
  -12.3496  -23.0047   29.3481 C   0  0  0  0  0  0  0  0  0  0  0  0
  -11.6160  -21.7225   29.1853 C   0  0  0  0  0  0  0  0  0  0  0  0
  -10.7516  -22.0361   28.0597 C   0  0  0  0  0  0  0  0  0  0  0  0
  -11.5098  -22.1676   26.8903 O   0  0  0  0  0  0  0  0  0  0  0  0
  -12.0928  -23.4337   26.6876 C   0  0  0  0  0  0  0  0  0  0  0  0
  -11.0045  -24.3387   26.1459 C   0  0  0  0  0  0  0  0  0  0  0  0
  -10.7893  -24.2695   24.6683 C   0  0  0  0  0  0  0  0  0  0  0  0
  -11.3993  -23.2183   23.9477 O   0  0  0  0  0  0  0  0  0  0  0  0
  -12.7138  -22.8627   24.3056 C   0  0  0  0  0  0  0  0  0  0  0  0
  -13.1700  -23.5862   25.5598 C   0  0  0  0  0  0  0  0  0  0  0  0
  -12.5588  -23.8556   28.0688 C   0  0  0  0  0  0  0  0  0  0  0  0
  -11.3098  -26.6143   28.2526 C   0  0  0  0  0  0  0  0  0  0  0  0
  -10.1336  -26.7533   27.5936 N   0  0  0  0  0  0  0  0  0  0  0  0
   -9.3785  -26.4096   28.6029 C   0  0  0  0  0  0  0  0  0  0  0  0
   -8.9170  -25.1108   29.0173 C   0  0  0  0  0  0  0  0  0  0  0  0
   -8.9710  -24.1384   31.0177 H   0  0  0  0  0  0  0  0  0  0  0  0
   -8.0994  -25.7023   32.1456 H   0  0  0  0  0  0  0  0  0  0  0  0
   -9.3462  -28.0662   31.4997 H   0  0  0  0  0  0  0  0  0  0  0  0
  -11.4456  -24.0072   33.6720 H   0  0  0  0  0  0  0  0  0  0  0  0
  -12.0734  -22.0349   31.8743 H   0  0  0  0  0  0  0  0  0  0  0  0
  -13.3133  -22.7679   29.7643 H   0  0  0  0  0  0  0  0  0  0  0  0
  -12.2641  -20.8903   28.9825 H   0  0  0  0  0  0  0  0  0  0  0  0
  -11.0209  -21.3841   30.0370 H   0  0  0  0  0  0  0  0  0  0  0  0
  -10.0444  -21.2494   27.9808 H   0  0  0  0  0  0  0  0  0  0  0  0
  -10.1630  -22.9134   28.2333 H   0  0  0  0  0  0  0  0  0  0  0  0
  -11.3256  -25.3641   26.2761 H   0  0  0  0  0  0  0  0  0  0  0  0
  -10.0502  -24.2267   26.6393 H   0  0  0  0  0  0  0  0  0  0  0  0
  -11.1255  -25.2562   24.3614 H   0  0  0  0  0  0  0  0  0  0  0  0
   -9.7490  -24.2618   24.3640 H   0  0  0  0  0  0  0  0  0  0  0  0
  -13.3990  -23.0790   23.4791 H   0  0  0  0  0  0  0  0  0  0  0  0
  -12.7182  -21.7744   24.3755 H   0  0  0  0  0  0  0  0  0  0  0  0
  -13.3219  -24.6564   25.3541 H   0  0  0  0  0  0  0  0  0  0  0  0
  -14.1807  -23.2481   25.7615 H   0  0  0  0  0  0  0  0  0  0  0  0
  -11.8761  -24.6259   28.2403 H   0  0  0  0  0  0  0  0  0  0  0  0
  -13.5178  -24.3492   28.0229 H   0  0  0  0  0  0  0  0  0  0  0  0
  -12.2115  -26.6066   27.6523 H   0  0  0  0  0  0  0  0  0  0  0  0
   -9.0604  -24.3021   28.3456 H   0  0  0  0  0  0  0  0  0  0  0  0
  1  2  1  0
  2  3  2  0
  3  4  1  0
  4  5  1  0
  5  6  1  0
  6  7  2  0
  7  8  1  0
  8  9  2  0
  9 10  1  0
 10 11  1  0
 11 12  1  0
 12 13  1  0
 13 14  1  0
 14 15  1  0
 15 16  1  0
 16 17  1  0
 17 18  1  0
 18 19  1  0
 19 20  1  0
 15 21  1  0
  5 22  2  0
 22 23  1  0
 23 24  2  0
 24 25  1  0
 25  1  2  0
 24  4  1  0
 10  6  1  0
 21 11  1  0
 20 15  1  0
  1 26  1  0
  2 27  1  0
  3 28  1  0
  8 29  1  0
  9 30  1  0
 11 31  1  0
 12 32  1  0
 12 33  1  0
 13 34  1  0
 13 35  1  0
 16 36  1  0
 16 37  1  0
 17 38  1  0
 17 39  1  0
 19 40  1  0
 19 41  1  0
 20 42  1  0
 20 43  1  0
 21 44  1  0
 21 45  1  0
 22 46  1  0
 25 47  1  0
M  END
>  <Energy>  (159) 
326.00127181422101

>  <compound_id>  (159) 
46102

>  <target_id>  (159) 
1

>  <reference_id>  (159) 
64

>  <inspiration_ids>  (159) 
[64, 52]

>  <energy_score>  (159) 
217.833423630896

>  <distance_score>  (159) 
2.131618313811083

>  <path>  (159) 
/opt/xchem-fragalysis-2/maxwin/BulkDock/SCRATCH/511022/C46102-P64/C46102-P64.minimised.mol

>  <scratch_subdir>  (159) 
/opt/xchem-fragalysis-2/maxwin/BulkDock/SCRATCH/511022/C46102-P64

>  <fragmenstein_runtime>  (159) 
6.479341983795166

>  <fragmenstein_outcome>  (159) 
too moved

>  <fragmenstein_mode>  (159) 
expansion

>  <fragmenstein_error>  (159) 


$$$$
C46102-P52
     RDKit          3D

 47 51  0  0  0  0  0  0  0  0999 V2000
  -10.5830  -26.0721   27.4498 C   0  0  0  0  0  0  0  0  0  0  0  0
   -9.6670  -25.2600   28.2113 C   0  0  0  0  0  0  0  0  0  0  0  0
   -9.5868  -25.3138   29.5379 C   0  0  0  0  0  0  0  0  0  0  0  0
  -10.6153  -25.9934   30.1450 N   0  0  0  0  0  0  0  0  0  0  0  0
  -11.1518  -25.7462   31.3682 C   0  0  0  0  0  0  0  0  0  0  0  0
  -10.8345  -24.5714   32.1489 C   0  0  0  0  0  0  0  0  0  0  0  0
  -10.2450  -24.6818   33.3174 N   0  0  0  0  0  0  0  0  0  0  0  0
  -10.2422  -23.4416   33.8729 C   0  0  0  0  0  0  0  0  0  0  0  0
  -10.8337  -22.5386   33.0358 C   0  0  0  0  0  0  0  0  0  0  0  0
  -11.1677  -23.2385   31.9024 N   0  0  0  0  0  0  0  0  0  0  0  0
  -11.8474  -22.6502   30.7496 C   0  0  0  0  0  0  0  0  0  0  0  0
  -11.7683  -21.1373   30.6692 C   0  0  0  0  0  0  0  0  0  0  0  0
  -11.7613  -20.7209   29.2206 C   0  0  0  0  0  0  0  0  0  0  0  0
  -12.6181  -21.6044   28.4935 O   0  0  0  0  0  0  0  0  0  0  0  0
  -12.0416  -22.8423   28.1503 C   0  0  0  0  0  0  0  0  0  0  0  0
  -13.0662  -23.9717   27.8791 C   0  0  0  0  0  0  0  0  0  0  0  0
  -13.4648  -24.2946   26.4383 C   0  0  0  0  0  0  0  0  0  0  0  0
  -13.0004  -23.3302   25.5254 O   0  0  0  0  0  0  0  0  0  0  0  0
  -11.6005  -23.1910   25.6301 C   0  0  0  0  0  0  0  0  0  0  0  0
  -11.1927  -22.5421   26.9314 C   0  0  0  0  0  0  0  0  0  0  0  0
  -11.3176  -23.1795   29.4329 C   0  0  0  0  0  0  0  0  0  0  0  0
  -11.9299  -26.8838   31.5249 C   0  0  0  0  0  0  0  0  0  0  0  0
  -12.2723  -27.4550   30.3289 N   0  0  0  0  0  0  0  0  0  0  0  0
  -11.5180  -26.8219   29.4787 C   0  0  0  0  0  0  0  0  0  0  0  0
  -11.4827  -26.8462   28.0723 C   0  0  0  0  0  0  0  0  0  0  0  0
  -10.5479  -26.0239   26.3695 H   0  0  0  0  0  0  0  0  0  0  0  0
   -9.2174  -24.3996   27.7814 H   0  0  0  0  0  0  0  0  0  0  0  0
   -8.9654  -24.6639   30.1413 H   0  0  0  0  0  0  0  0  0  0  0  0
   -9.8429  -23.2823   34.8627 H   0  0  0  0  0  0  0  0  0  0  0  0
  -11.0515  -21.4912   33.1854 H   0  0  0  0  0  0  0  0  0  0  0  0
  -12.8977  -22.9316   30.8571 H   0  0  0  0  0  0  0  0  0  0  0  0
  -12.6519  -20.7518   31.1857 H   0  0  0  0  0  0  0  0  0  0  0  0
  -10.8985  -20.6914   31.1592 H   0  0  0  0  0  0  0  0  0  0  0  0
  -12.1576  -19.7147   29.1592 H   0  0  0  0  0  0  0  0  0  0  0  0
  -10.7447  -20.7215   28.8161 H   0  0  0  0  0  0  0  0  0  0  0  0
  -13.9230  -23.8400   28.5288 H   0  0  0  0  0  0  0  0  0  0  0  0
  -12.7452  -24.9216   28.2683 H   0  0  0  0  0  0  0  0  0  0  0  0
  -14.5536  -24.3668   26.3442 H   0  0  0  0  0  0  0  0  0  0  0  0
  -13.0871  -25.2778   26.1340 H   0  0  0  0  0  0  0  0  0  0  0  0
  -11.2827  -22.6001   24.7699 H   0  0  0  0  0  0  0  0  0  0  0  0
  -11.1114  -24.1600   25.5217 H   0  0  0  0  0  0  0  0  0  0  0  0
  -11.2672  -21.4658   26.7457 H   0  0  0  0  0  0  0  0  0  0  0  0
  -10.1449  -22.7533   27.1230 H   0  0  0  0  0  0  0  0  0  0  0  0
  -11.5184  -24.2062   29.5295 H   0  0  0  0  0  0  0  0  0  0  0  0
  -10.2534  -22.9417   29.3584 H   0  0  0  0  0  0  0  0  0  0  0  0
  -12.3456  -27.3044   32.4243 H   0  0  0  0  0  0  0  0  0  0  0  0
  -12.2173  -27.4406   27.5424 H   0  0  0  0  0  0  0  0  0  0  0  0
  1  2  1  0
  2  3  2  0
  3  4  1  0
  4  5  1  0
  5  6  1  0
  6  7  2  0
  7  8  1  0
  8  9  2  0
  9 10  1  0
 10 11  1  0
 11 12  1  0
 12 13  1  0
 13 14  1  0
 14 15  1  0
 15 16  1  0
 16 17  1  0
 17 18  1  0
 18 19  1  0
 19 20  1  0
 15 21  1  0
  5 22  2  0
 22 23  1  0
 23 24  2  0
 24 25  1  0
 25  1  2  0
 24  4  1  0
 10  6  1  0
 21 11  1  0
 20 15  1  0
  1 26  1  0
  2 27  1  0
  3 28  1  0
  8 29  1  0
  9 30  1  0
 11 31  1  0
 12 32  1  0
 12 33  1  0
 13 34  1  0
 13 35  1  0
 16 36  1  0
 16 37  1  0
 17 38  1  0
 17 39  1  0
 19 40  1  0
 19 41  1  0
 20 42  1  0
 20 43  1  0
 21 44  1  0
 21 45  1  0
 22 46  1  0
 25 47  1  0
M  END
>  <Energy>  (160) 
135.30207569814618

>  <compound_id>  (160) 
46102

>  <target_id>  (160) 
1

>  <reference_id>  (160) 
52

>  <inspiration_ids>  (160) 
[64, 52]

>  <energy_score>  (160) 
44.85140252560194

>  <distance_score>  (160) 
2.423051044057575

>  <path>  (160) 
/opt/xchem-fragalysis-2/maxwin/BulkDock/SCRATCH/511022/C46102-P52/C46102-P52.minimised.mol

>  <scratch_subdir>  (160) 
/opt/xchem-fragalysis-2/maxwin/BulkDock/SCRATCH/511022/C46102-P52

>  <fragmenstein_runtime>  (160) 
6.360718011856079

>  <fragmenstein_outcome>  (160) 
too moved

>  <fragmenstein_mode>  (160) 
expansion

>  <fragmenstein_error>  (160) 


$$$$
C46104-P64
     RDKit          3D

 42 44  0  0  0  0  0  0  0  0999 V2000
  -14.9603  -25.9662   27.0556 C   0  0  0  0  0  0  0  0  0  0  0  0
  -13.7788  -26.5181   26.2895 C   0  0  0  0  0  0  0  0  0  0  0  0
  -13.9843  -26.1278   24.8423 C   0  0  0  0  0  0  0  0  0  0  0  0
  -12.4224  -26.3419   26.7784 N   0  0  0  0  0  0  0  0  0  0  0  0
  -11.7277  -27.2493   27.5266 C   0  0  0  0  0  0  0  0  0  0  0  0
  -10.5588  -26.6304   27.8899 C   0  0  0  0  0  0  0  0  0  0  0  0
  -10.3933  -25.5078   27.1753 N   0  0  0  0  0  0  0  0  0  0  0  0
  -11.5601  -25.2998   26.6058 C   0  0  0  0  0  0  0  0  0  0  0  0
  -11.9457  -23.9907   26.1128 C   0  0  0  0  0  0  0  0  0  0  0  0
  -12.3742  -23.2455   27.2818 N   0  0  0  0  0  0  0  0  0  0  0  0
  -11.2843  -22.4734   27.8652 C   0  0  0  0  0  0  0  0  0  0  0  0
  -11.5671  -21.6646   29.1219 C   0  0  0  0  0  0  0  0  0  0  0  0
  -11.7693  -22.4456   30.3148 C   0  0  0  0  0  0  0  0  0  0  0  0
  -12.3789  -22.1851   31.5172 C   0  0  0  0  0  0  0  0  0  0  0  0
  -11.9176  -23.1753   32.3254 N   0  0  0  0  0  0  0  0  0  0  0  0
  -12.4070  -23.6350   33.5189 C   0  0  0  0  0  0  0  0  0  0  0  0
  -11.8528  -24.7701   33.9478 C   0  0  0  0  0  0  0  0  0  0  0  0
  -10.6541  -25.2800   33.3861 C   0  0  0  0  0  0  0  0  0  0  0  0
  -10.1866  -24.8457   32.2237 C   0  0  0  0  0  0  0  0  0  0  0  0
  -10.9592  -23.8592   31.6027 C   0  0  0  0  0  0  0  0  0  0  0  0
  -11.0506  -23.5807   30.3472 N   0  0  0  0  0  0  0  0  0  0  0  0
  -14.7650  -24.9346   27.2839 H   0  0  0  0  0  0  0  0  0  0  0  0
  -15.8882  -26.0115   26.4729 H   0  0  0  0  0  0  0  0  0  0  0  0
  -15.1625  -26.5387   27.9635 H   0  0  0  0  0  0  0  0  0  0  0  0
  -13.9602  -27.5818   26.3657 H   0  0  0  0  0  0  0  0  0  0  0  0
  -14.1281  -25.0590   24.6874 H   0  0  0  0  0  0  0  0  0  0  0  0
  -13.1162  -26.4899   24.3041 H   0  0  0  0  0  0  0  0  0  0  0  0
  -14.8958  -26.5647   24.4213 H   0  0  0  0  0  0  0  0  0  0  0  0
  -12.1514  -28.1971   27.8066 H   0  0  0  0  0  0  0  0  0  0  0  0
   -9.8013  -26.9662   28.5824 H   0  0  0  0  0  0  0  0  0  0  0  0
  -12.7591  -23.9997   25.4003 H   0  0  0  0  0  0  0  0  0  0  0  0
  -11.1199  -23.5733   25.5569 H   0  0  0  0  0  0  0  0  0  0  0  0
  -12.9638  -22.5429   26.8483 H   0  0  0  0  0  0  0  0  0  0  0  0
  -11.0608  -21.7133   27.1321 H   0  0  0  0  0  0  0  0  0  0  0  0
  -10.4016  -23.1006   28.0175 H   0  0  0  0  0  0  0  0  0  0  0  0
  -12.3129  -20.9032   29.0156 H   0  0  0  0  0  0  0  0  0  0  0  0
  -10.6603  -21.1063   29.3479 H   0  0  0  0  0  0  0  0  0  0  0  0
  -13.0740  -21.4704   31.9041 H   0  0  0  0  0  0  0  0  0  0  0  0
  -13.3268  -23.2200   33.8986 H   0  0  0  0  0  0  0  0  0  0  0  0
  -12.2972  -25.4744   34.6226 H   0  0  0  0  0  0  0  0  0  0  0  0
  -10.2566  -26.0876   33.9468 H   0  0  0  0  0  0  0  0  0  0  0  0
   -9.3310  -25.2781   31.7241 H   0  0  0  0  0  0  0  0  0  0  0  0
  1  2  1  0
  2  3  1  0
  2  4  1  0
  4  5  1  0
  5  6  2  0
  6  7  1  0
  7  8  2  0
  8  9  1  0
  9 10  1  0
 10 11  1  0
 11 12  1  0
 12 13  1  0
 13 14  2  0
 14 15  1  0
 15 16  1  0
 16 17  2  0
 17 18  1  0
 18 19  2  0
 19 20  1  0
 20 21  2  0
  8  4  1  0
 21 13  1  0
 20 15  1  0
  1 22  1  0
  1 23  1  0
  1 24  1  0
  2 25  1  0
  3 26  1  0
  3 27  1  0
  3 28  1  0
  5 29  1  0
  6 30  1  0
  9 31  1  0
  9 32  1  0
 10 33  1  0
 11 34  1  0
 11 35  1  0
 12 36  1  0
 12 37  1  0
 14 38  1  0
 16 39  1  0
 17 40  1  0
 18 41  1  0
 19 42  1  0
M  END
>  <Energy>  (161) 
104.16483386333084

>  <compound_id>  (161) 
46104

>  <target_id>  (161) 
1

>  <reference_id>  (161) 
64

>  <inspiration_ids>  (161) 
[64, 52]

>  <energy_score>  (161) 
26.411890384010604

>  <distance_score>  (161) 
2.345478744406983

>  <path>  (161) 
/opt/xchem-fragalysis-2/maxwin/BulkDock/SCRATCH/511022/C46104-P64/C46104-P64.minimised.mol

>  <scratch_subdir>  (161) 
/opt/xchem-fragalysis-2/maxwin/BulkDock/SCRATCH/511022/C46104-P64

>  <fragmenstein_runtime>  (161) 
4.143320798873901

>  <fragmenstein_outcome>  (161) 
too moved

>  <fragmenstein_mode>  (161) 
expansion

>  <fragmenstein_error>  (161) 


$$$$
C46104-P52
     RDKit          3D

 42 44  0  0  0  0  0  0  0  0999 V2000
  -14.5791  -25.8588   27.0586 C   0  0  0  0  0  0  0  0  0  0  0  0
  -13.2823  -26.6505   26.9213 C   0  0  0  0  0  0  0  0  0  0  0  0
  -13.5769  -28.1063   27.3224 C   0  0  0  0  0  0  0  0  0  0  0  0
  -12.1929  -26.0531   27.6718 N   0  0  0  0  0  0  0  0  0  0  0  0
  -11.7881  -26.3889   28.9332 C   0  0  0  0  0  0  0  0  0  0  0  0
  -10.6559  -25.6470   29.1436 C   0  0  0  0  0  0  0  0  0  0  0  0
  -10.3342  -24.9302   28.0387 N   0  0  0  0  0  0  0  0  0  0  0  0
  -11.3960  -25.0080   27.2648 C   0  0  0  0  0  0  0  0  0  0  0  0
  -11.7680  -23.9834   26.2438 C   0  0  0  0  0  0  0  0  0  0  0  0
  -12.3117  -22.7975   26.9169 N   0  0  0  0  0  0  0  0  0  0  0  0
  -11.2466  -22.0082   27.5414 C   0  0  0  0  0  0  0  0  0  0  0  0
  -11.5089  -21.2628   28.8339 C   0  0  0  0  0  0  0  0  0  0  0  0
  -11.6419  -22.0279   30.0794 C   0  0  0  0  0  0  0  0  0  0  0  0
  -12.4248  -21.7526   31.1821 C   0  0  0  0  0  0  0  0  0  0  0  0
  -11.7776  -22.3634   32.2250 N   0  0  0  0  0  0  0  0  0  0  0  0
  -11.9525  -22.2268   33.5879 C   0  0  0  0  0  0  0  0  0  0  0  0
  -11.1056  -22.8726   34.4007 C   0  0  0  0  0  0  0  0  0  0  0  0
  -10.0610  -23.7176   33.8572 C   0  0  0  0  0  0  0  0  0  0  0  0
   -9.9054  -23.8544   32.5344 C   0  0  0  0  0  0  0  0  0  0  0  0
  -10.7642  -23.1271   31.6696 C   0  0  0  0  0  0  0  0  0  0  0  0
  -10.6921  -22.9540   30.3788 N   0  0  0  0  0  0  0  0  0  0  0  0
  -14.9185  -25.8663   28.0992 H   0  0  0  0  0  0  0  0  0  0  0  0
  -15.3712  -26.2973   26.4418 H   0  0  0  0  0  0  0  0  0  0  0  0
  -14.4620  -24.8186   26.7487 H   0  0  0  0  0  0  0  0  0  0  0  0
  -12.9691  -26.6516   25.8706 H   0  0  0  0  0  0  0  0  0  0  0  0
  -14.2781  -28.5651   26.6176 H   0  0  0  0  0  0  0  0  0  0  0  0
  -12.6741  -28.7199   27.3472 H   0  0  0  0  0  0  0  0  0  0  0  0
  -14.0337  -28.1642   28.3173 H   0  0  0  0  0  0  0  0  0  0  0  0
  -12.3052  -27.0987   29.5599 H   0  0  0  0  0  0  0  0  0  0  0  0
  -10.0312  -25.6163   30.0249 H   0  0  0  0  0  0  0  0  0  0  0  0
  -10.9085  -23.7305   25.6136 H   0  0  0  0  0  0  0  0  0  0  0  0
  -12.5479  -24.3776   25.5919 H   0  0  0  0  0  0  0  0  0  0  0  0
  -12.7290  -22.2018   26.1913 H   0  0  0  0  0  0  0  0  0  0  0  0
  -11.0802  -21.2055   26.8306 H   0  0  0  0  0  0  0  0  0  0  0  0
  -10.3052  -22.5557   27.6383 H   0  0  0  0  0  0  0  0  0  0  0  0
  -12.3086  -20.5467   28.7326 H   0  0  0  0  0  0  0  0  0  0  0  0
  -10.6254  -20.6335   29.0006 H   0  0  0  0  0  0  0  0  0  0  0  0
  -13.2487  -21.0793   31.3535 H   0  0  0  0  0  0  0  0  0  0  0  0
  -12.7564  -21.5949   33.9421 H   0  0  0  0  0  0  0  0  0  0  0  0
  -11.1820  -22.7781   35.4718 H   0  0  0  0  0  0  0  0  0  0  0  0
   -9.3975  -24.2249   34.5461 H   0  0  0  0  0  0  0  0  0  0  0  0
   -9.1083  -24.4564   32.1145 H   0  0  0  0  0  0  0  0  0  0  0  0
  1  2  1  0
  2  3  1  0
  2  4  1  0
  4  5  1  0
  5  6  2  0
  6  7  1  0
  7  8  2  0
  8  9  1  0
  9 10  1  0
 10 11  1  0
 11 12  1  0
 12 13  1  0
 13 14  2  0
 14 15  1  0
 15 16  1  0
 16 17  2  0
 17 18  1  0
 18 19  2  0
 19 20  1  0
 20 21  2  0
  8  4  1  0
 21 13  1  0
 20 15  1  0
  1 22  1  0
  1 23  1  0
  1 24  1  0
  2 25  1  0
  3 26  1  0
  3 27  1  0
  3 28  1  0
  5 29  1  0
  6 30  1  0
  9 31  1  0
  9 32  1  0
 10 33  1  0
 11 34  1  0
 11 35  1  0
 12 36  1  0
 12 37  1  0
 14 38  1  0
 16 39  1  0
 17 40  1  0
 18 41  1  0
 19 42  1  0
M  END
>  <Energy>  (162) 
77.175189591780665

>  <compound_id>  (162) 
46104

>  <target_id>  (162) 
1

>  <reference_id>  (162) 
52

>  <inspiration_ids>  (162) 
[64, 52]

>  <energy_score>  (162) 
-0.5777538875403252

>  <distance_score>  (162) 
1.9527421768824278

>  <path>  (162) 
/opt/xchem-fragalysis-2/maxwin/BulkDock/SCRATCH/511022/C46104-P52/C46104-P52.minimised.mol

>  <scratch_subdir>  (162) 
/opt/xchem-fragalysis-2/maxwin/BulkDock/SCRATCH/511022/C46104-P52

>  <fragmenstein_runtime>  (162) 
4.276966571807861

>  <fragmenstein_outcome>  (162) 
too moved

>  <fragmenstein_mode>  (162) 
expansion

>  <fragmenstein_error>  (162) 


$$$$
C46105-P64
     RDKit          3D

 44 46  0  0  0  0  0  0  0  0999 V2000
   -9.7290  -26.6359   30.6301 C   0  0  0  0  0  0  0  0  0  0  0  0
   -9.9032  -26.7352   29.1019 C   0  0  0  0  0  0  0  0  0  0  0  0
   -9.0817  -26.1029   28.2699 N   0  0  0  0  0  0  0  0  0  0  0  0
   -9.6807  -24.8874   28.2790 C   0  0  0  0  0  0  0  0  0  0  0  0
  -10.9380  -25.0757   28.7811 C   0  0  0  0  0  0  0  0  0  0  0  0
  -11.1034  -26.4009   28.4964 N   0  0  0  0  0  0  0  0  0  0  0  0
  -11.4934  -26.8615   27.1600 C   0  0  0  0  0  0  0  0  0  0  0  0
  -12.8381  -26.4701   26.5192 C   0  0  0  0  0  0  0  0  0  0  0  0
  -13.3520  -25.0396   26.5083 C   0  0  0  0  0  0  0  0  0  0  0  0
  -12.2702  -23.9841   26.4798 C   0  0  0  0  0  0  0  0  0  0  0  0
  -11.5235  -23.9683   25.5435 O   0  0  0  0  0  0  0  0  0  0  0  0
  -12.2877  -23.1881   27.6900 N   0  0  0  0  0  0  0  0  0  0  0  0
  -11.3669  -22.2070   28.1805 C   0  0  0  0  0  0  0  0  0  0  0  0
  -11.5424  -21.5231   29.5195 C   0  0  0  0  0  0  0  0  0  0  0  0
  -12.1217  -22.1420   30.7349 C   0  0  0  0  0  0  0  0  0  0  0  0
  -11.6023  -22.7813   31.8427 C   0  0  0  0  0  0  0  0  0  0  0  0
  -12.6863  -22.9598   32.6868 N   0  0  0  0  0  0  0  0  0  0  0  0
  -12.9287  -23.9159   33.6488 C   0  0  0  0  0  0  0  0  0  0  0  0
  -14.2086  -24.1068   34.0448 C   0  0  0  0  0  0  0  0  0  0  0  0
  -15.2283  -23.1296   33.7338 C   0  0  0  0  0  0  0  0  0  0  0  0
  -14.9613  -22.1525   32.8595 C   0  0  0  0  0  0  0  0  0  0  0  0
  -13.7179  -22.1928   32.1870 C   0  0  0  0  0  0  0  0  0  0  0  0
  -13.4409  -21.8576   30.9655 N   0  0  0  0  0  0  0  0  0  0  0  0
   -8.9932  -25.8741   30.9147 H   0  0  0  0  0  0  0  0  0  0  0  0
  -10.6111  -26.2368   31.1225 H   0  0  0  0  0  0  0  0  0  0  0  0
   -9.4232  -27.5984   31.0414 H   0  0  0  0  0  0  0  0  0  0  0  0
   -9.1513  -23.9849   28.0585 H   0  0  0  0  0  0  0  0  0  0  0  0
  -11.6327  -24.4996   29.3603 H   0  0  0  0  0  0  0  0  0  0  0  0
  -11.5381  -27.9443   27.2698 H   0  0  0  0  0  0  0  0  0  0  0  0
  -10.6852  -26.6356   26.4567 H   0  0  0  0  0  0  0  0  0  0  0  0
  -13.6285  -27.0960   26.9530 H   0  0  0  0  0  0  0  0  0  0  0  0
  -12.7712  -26.7765   25.4674 H   0  0  0  0  0  0  0  0  0  0  0  0
  -14.0326  -24.9154   27.3436 H   0  0  0  0  0  0  0  0  0  0  0  0
  -13.9784  -24.8826   25.6202 H   0  0  0  0  0  0  0  0  0  0  0  0
  -13.0140  -23.5304   28.2994 H   0  0  0  0  0  0  0  0  0  0  0  0
  -11.3072  -21.4920   27.3728 H   0  0  0  0  0  0  0  0  0  0  0  0
  -10.3795  -22.6184   28.1761 H   0  0  0  0  0  0  0  0  0  0  0  0
  -12.1665  -20.6664   29.2958 H   0  0  0  0  0  0  0  0  0  0  0  0
  -10.6035  -21.0683   29.8187 H   0  0  0  0  0  0  0  0  0  0  0  0
  -10.6359  -23.2009   32.0757 H   0  0  0  0  0  0  0  0  0  0  0  0
  -12.1138  -24.5832   33.8904 H   0  0  0  0  0  0  0  0  0  0  0  0
  -14.5075  -24.9635   34.6370 H   0  0  0  0  0  0  0  0  0  0  0  0
  -16.1821  -23.2001   34.2427 H   0  0  0  0  0  0  0  0  0  0  0  0
  -15.6942  -21.4064   32.5868 H   0  0  0  0  0  0  0  0  0  0  0  0
  1  2  1  0
  2  3  2  0
  3  4  1  0
  4  5  2  0
  5  6  1  0
  6  7  1  0
  7  8  1  0
  8  9  1  0
  9 10  1  0
 10 11  2  0
 10 12  1  0
 12 13  1  0
 13 14  1  0
 14 15  1  0
 15 16  2  0
 16 17  1  0
 17 18  1  0
 18 19  2  0
 19 20  1  0
 20 21  2  0
 21 22  1  0
 22 23  2  0
  6  2  1  0
 23 15  1  0
 22 17  1  0
  1 24  1  0
  1 25  1  0
  1 26  1  0
  4 27  1  0
  5 28  1  0
  7 29  1  0
  7 30  1  0
  8 31  1  0
  8 32  1  0
  9 33  1  0
  9 34  1  0
 12 35  1  0
 13 36  1  0
 13 37  1  0
 14 38  1  0
 14 39  1  0
 16 40  1  0
 18 41  1  0
 19 42  1  0
 20 43  1  0
 21 44  1  0
M  END
>  <Energy>  (163) 
145.84589101052052

>  <compound_id>  (163) 
46105

>  <target_id>  (163) 
1

>  <reference_id>  (163) 
64

>  <inspiration_ids>  (163) 
[64, 52]

>  <energy_score>  (163) 
110.70503215177467

>  <distance_score>  (163) 
3.2940857815843154

>  <path>  (163) 
/opt/xchem-fragalysis-2/maxwin/BulkDock/SCRATCH/511022/C46105-P64/C46105-P64.minimised.mol

>  <scratch_subdir>  (163) 
/opt/xchem-fragalysis-2/maxwin/BulkDock/SCRATCH/511022/C46105-P64

>  <fragmenstein_runtime>  (163) 
14.185097217559814

>  <fragmenstein_outcome>  (163) 
too moved

>  <fragmenstein_mode>  (163) 
expansion

>  <fragmenstein_error>  (163) 


$$$$
C46105-P52
     RDKit          3D

 44 46  0  0  0  0  0  0  0  0999 V2000
  -11.0054  -26.8639   28.8855 C   0  0  0  0  0  0  0  0  0  0  0  0
  -12.2634  -26.2078   28.9611 C   0  0  0  0  0  0  0  0  0  0  0  0
  -12.3922  -25.0509   29.5290 N   0  0  0  0  0  0  0  0  0  0  0  0
  -13.5933  -24.6265   29.1345 C   0  0  0  0  0  0  0  0  0  0  0  0
  -14.3209  -25.6614   28.6087 C   0  0  0  0  0  0  0  0  0  0  0  0
  -13.3919  -26.6060   28.3437 N   0  0  0  0  0  0  0  0  0  0  0  0
  -13.5717  -27.5699   27.3034 C   0  0  0  0  0  0  0  0  0  0  0  0
  -13.7787  -26.9112   25.9369 C   0  0  0  0  0  0  0  0  0  0  0  0
  -13.5651  -25.4136   25.7265 C   0  0  0  0  0  0  0  0  0  0  0  0
  -12.1027  -25.0509   25.9627 C   0  0  0  0  0  0  0  0  0  0  0  0
  -11.2317  -25.7138   25.5797 O   0  0  0  0  0  0  0  0  0  0  0  0
  -12.0794  -23.7526   26.7625 N   0  0  0  0  0  0  0  0  0  0  0  0
  -10.9877  -22.9449   27.1802 C   0  0  0  0  0  0  0  0  0  0  0  0
  -11.3084  -21.8623   28.1959 C   0  0  0  0  0  0  0  0  0  0  0  0
  -11.2515  -22.2874   29.6108 C   0  0  0  0  0  0  0  0  0  0  0  0
  -10.4036  -23.2055   30.1913 C   0  0  0  0  0  0  0  0  0  0  0  0
  -10.6349  -23.1206   31.5317 N   0  0  0  0  0  0  0  0  0  0  0  0
   -9.9471  -23.7486   32.5590 C   0  0  0  0  0  0  0  0  0  0  0  0
  -10.2830  -23.4754   33.8232 C   0  0  0  0  0  0  0  0  0  0  0  0
  -11.3846  -22.5696   34.0583 C   0  0  0  0  0  0  0  0  0  0  0  0
  -12.0440  -21.9671   33.0532 C   0  0  0  0  0  0  0  0  0  0  0  0
  -11.6559  -22.2006   31.7106 C   0  0  0  0  0  0  0  0  0  0  0  0
  -12.0400  -21.6764   30.5628 N   0  0  0  0  0  0  0  0  0  0  0  0
  -10.5477  -26.6713   27.9122 H   0  0  0  0  0  0  0  0  0  0  0  0
  -10.3913  -26.4109   29.6688 H   0  0  0  0  0  0  0  0  0  0  0  0
  -11.1223  -27.9395   29.0463 H   0  0  0  0  0  0  0  0  0  0  0  0
  -13.8495  -23.6030   29.3485 H   0  0  0  0  0  0  0  0  0  0  0  0
  -15.3258  -25.7718   28.2338 H   0  0  0  0  0  0  0  0  0  0  0  0
  -14.4442  -28.1810   27.5652 H   0  0  0  0  0  0  0  0  0  0  0  0
  -12.7197  -28.2522   27.2943 H   0  0  0  0  0  0  0  0  0  0  0  0
  -13.0519  -27.3957   25.2932 H   0  0  0  0  0  0  0  0  0  0  0  0
  -14.7906  -27.1524   25.5915 H   0  0  0  0  0  0  0  0  0  0  0  0
  -14.2746  -24.8102   26.2916 H   0  0  0  0  0  0  0  0  0  0  0  0
  -13.7911  -25.1750   24.6837 H   0  0  0  0  0  0  0  0  0  0  0  0
  -13.0172  -23.4873   26.9960 H   0  0  0  0  0  0  0  0  0  0  0  0
  -10.7145  -22.5012   26.2403 H   0  0  0  0  0  0  0  0  0  0  0  0
  -10.1620  -23.5959   27.4769 H   0  0  0  0  0  0  0  0  0  0  0  0
  -12.2812  -21.4297   27.9822 H   0  0  0  0  0  0  0  0  0  0  0  0
  -10.5717  -21.0626   28.0967 H   0  0  0  0  0  0  0  0  0  0  0  0
   -9.6483  -23.8611   29.7855 H   0  0  0  0  0  0  0  0  0  0  0  0
   -9.1347  -24.4165   32.2983 H   0  0  0  0  0  0  0  0  0  0  0  0
   -9.7561  -23.9153   34.6612 H   0  0  0  0  0  0  0  0  0  0  0  0
  -11.6873  -22.3881   35.0838 H   0  0  0  0  0  0  0  0  0  0  0  0
  -12.8816  -21.3075   33.2477 H   0  0  0  0  0  0  0  0  0  0  0  0
  1  2  1  0
  2  3  2  0
  3  4  1  0
  4  5  2  0
  5  6  1  0
  6  7  1  0
  7  8  1  0
  8  9  1  0
  9 10  1  0
 10 11  2  0
 10 12  1  0
 12 13  1  0
 13 14  1  0
 14 15  1  0
 15 16  2  0
 16 17  1  0
 17 18  1  0
 18 19  2  0
 19 20  1  0
 20 21  2  0
 21 22  1  0
 22 23  2  0
  6  2  1  0
 23 15  1  0
 22 17  1  0
  1 24  1  0
  1 25  1  0
  1 26  1  0
  4 27  1  0
  5 28  1  0
  7 29  1  0
  7 30  1  0
  8 31  1  0
  8 32  1  0
  9 33  1  0
  9 34  1  0
 12 35  1  0
 13 36  1  0
 13 37  1  0
 14 38  1  0
 14 39  1  0
 16 40  1  0
 18 41  1  0
 19 42  1  0
 20 43  1  0
 21 44  1  0
M  END
>  <Energy>  (164) 
55.934613747013401

>  <compound_id>  (164) 
46105

>  <target_id>  (164) 
1

>  <reference_id>  (164) 
52

>  <inspiration_ids>  (164) 
[64, 52]

>  <energy_score>  (164) 
22.240258499719403

>  <distance_score>  (164) 
2.5636367036848338

>  <path>  (164) 
/opt/xchem-fragalysis-2/maxwin/BulkDock/SCRATCH/511022/C46105-P52/C46105-P52.minimised.mol

>  <scratch_subdir>  (164) 
/opt/xchem-fragalysis-2/maxwin/BulkDock/SCRATCH/511022/C46105-P52

>  <fragmenstein_runtime>  (164) 
8.092867374420166

>  <fragmenstein_outcome>  (164) 
too moved

>  <fragmenstein_mode>  (164) 
expansion

>  <fragmenstein_error>  (164) 


$$$$
C46107-P64
     RDKit          3D

 38 40  0  0  0  0  0  0  0  0999 V2000
  -10.0322  -22.8225   28.0987 O   0  0  0  0  0  0  0  0  0  0  0  0
  -11.1363  -22.6376   28.3793 C   0  0  0  0  0  0  0  0  0  0  0  0
  -11.4976  -21.5768   29.3893 C   0  0  0  0  0  0  0  0  0  0  0  0
  -11.8338  -22.0013   30.7204 C   0  0  0  0  0  0  0  0  0  0  0  0
  -13.0048  -21.9984   31.4357 C   0  0  0  0  0  0  0  0  0  0  0  0
  -12.6929  -22.6839   32.5639 N   0  0  0  0  0  0  0  0  0  0  0  0
  -13.5942  -23.2538   33.4118 C   0  0  0  0  0  0  0  0  0  0  0  0
  -13.2142  -24.4269   33.9088 C   0  0  0  0  0  0  0  0  0  0  0  0
  -11.8113  -24.8660   33.8434 C   0  0  0  0  0  0  0  0  0  0  0  0
  -10.9306  -24.2189   33.0838 C   0  0  0  0  0  0  0  0  0  0  0  0
  -11.3888  -23.0856   32.4047 C   0  0  0  0  0  0  0  0  0  0  0  0
  -10.8087  -22.3714   31.5005 N   0  0  0  0  0  0  0  0  0  0  0  0
  -12.4072  -23.2403   27.8160 N   0  0  0  0  0  0  0  0  0  0  0  0
  -12.6080  -24.1477   26.7007 C   0  0  0  0  0  0  0  0  0  0  0  0
  -11.3642  -24.7759   26.1342 C   0  0  0  0  0  0  0  0  0  0  0  0
  -10.9271  -25.7636   27.0964 N   0  0  0  0  0  0  0  0  0  0  0  0
  -11.5682  -26.9415   27.2864 C   0  0  0  0  0  0  0  0  0  0  0  0
  -11.2999  -27.4299   28.4733 N   0  0  0  0  0  0  0  0  0  0  0  0
  -10.3677  -26.5685   29.0472 C   0  0  0  0  0  0  0  0  0  0  0  0
   -9.7599  -26.7044   30.3670 C   0  0  0  0  0  0  0  0  0  0  0  0
   -9.5042  -27.7504   30.9469 O   0  0  0  0  0  0  0  0  0  0  0  0
   -9.3579  -25.5596   30.9590 O   0  0  0  0  0  0  0  0  0  0  0  0
  -10.0758  -25.5894   28.1349 C   0  0  0  0  0  0  0  0  0  0  0  0
  -12.2357  -20.9087   28.9904 H   0  0  0  0  0  0  0  0  0  0  0  0
  -10.6125  -20.9617   29.5077 H   0  0  0  0  0  0  0  0  0  0  0  0
  -14.0336  -21.7606   31.2312 H   0  0  0  0  0  0  0  0  0  0  0  0
  -14.6197  -22.9198   33.4095 H   0  0  0  0  0  0  0  0  0  0  0  0
  -13.9589  -25.0821   34.3527 H   0  0  0  0  0  0  0  0  0  0  0  0
  -11.5170  -25.7466   34.4014 H   0  0  0  0  0  0  0  0  0  0  0  0
   -9.8967  -24.5147   33.0079 H   0  0  0  0  0  0  0  0  0  0  0  0
  -13.1851  -22.9205   28.3412 H   0  0  0  0  0  0  0  0  0  0  0  0
  -13.3524  -24.8876   27.0108 H   0  0  0  0  0  0  0  0  0  0  0  0
  -13.0755  -23.5715   25.8981 H   0  0  0  0  0  0  0  0  0  0  0  0
  -11.5723  -25.3120   25.2052 H   0  0  0  0  0  0  0  0  0  0  0  0
  -10.5528  -24.0828   25.9567 H   0  0  0  0  0  0  0  0  0  0  0  0
  -12.2683  -27.3421   26.5727 H   0  0  0  0  0  0  0  0  0  0  0  0
   -8.9557  -25.9518   31.7779 H   0  0  0  0  0  0  0  0  0  0  0  0
   -9.3685  -24.7899   28.2171 H   0  0  0  0  0  0  0  0  0  0  0  0
  1  2  2  0
  2  3  1  0
  3  4  1  0
  4  5  2  0
  5  6  1  0
  6  7  1  0
  7  8  2  0
  8  9  1  0
  9 10  2  0
 10 11  1  0
 11 12  2  0
  2 13  1  0
 13 14  1  0
 14 15  1  0
 15 16  1  0
 16 17  1  0
 17 18  2  0
 18 19  1  0
 19 20  1  0
 20 21  2  0
 20 22  1  0
 19 23  2  0
 12  4  1  0
 23 16  1  0
 11  6  1  0
  3 24  1  0
  3 25  1  0
  5 26  1  0
  7 27  1  0
  8 28  1  0
  9 29  1  0
 10 30  1  0
 13 31  1  0
 14 32  1  0
 14 33  1  0
 15 34  1  0
 15 35  1  0
 17 36  1  0
 22 37  1  0
 23 38  1  0
M  END
>  <Energy>  (165) 
113.8025033579621

>  <compound_id>  (165) 
46107

>  <target_id>  (165) 
1

>  <reference_id>  (165) 
64

>  <inspiration_ids>  (165) 
[64, 52]

>  <energy_score>  (165) 
20.840287035969368

>  <distance_score>  (165) 
2.0434489204996904

>  <path>  (165) 
/opt/xchem-fragalysis-2/maxwin/BulkDock/SCRATCH/511022/C46107-P64/C46107-P64.minimised.mol

>  <scratch_subdir>  (165) 
/opt/xchem-fragalysis-2/maxwin/BulkDock/SCRATCH/511022/C46107-P64

>  <fragmenstein_runtime>  (165) 
5.540152072906494

>  <fragmenstein_outcome>  (165) 
too moved

>  <fragmenstein_mode>  (165) 
expansion

>  <fragmenstein_error>  (165) 


$$$$
C46107-P52
     RDKit          3D

 38 40  0  0  0  0  0  0  0  0999 V2000
  -12.4770  -21.6612   27.6724 O   0  0  0  0  0  0  0  0  0  0  0  0
  -11.4283  -22.1390   27.7275 C   0  0  0  0  0  0  0  0  0  0  0  0
  -10.5012  -21.7360   28.7869 C   0  0  0  0  0  0  0  0  0  0  0  0
  -10.9626  -22.3373   30.0421 C   0  0  0  0  0  0  0  0  0  0  0  0
  -11.7964  -21.8188   31.0077 C   0  0  0  0  0  0  0  0  0  0  0  0
  -11.4381  -22.4893   32.1431 N   0  0  0  0  0  0  0  0  0  0  0  0
  -11.7294  -22.2042   33.4603 C   0  0  0  0  0  0  0  0  0  0  0  0
  -11.0716  -22.8851   34.4056 C   0  0  0  0  0  0  0  0  0  0  0  0
  -10.1025  -23.9010   34.0399 C   0  0  0  0  0  0  0  0  0  0  0  0
   -9.8740  -24.2184   32.7590 C   0  0  0  0  0  0  0  0  0  0  0  0
  -10.5420  -23.4783   31.7531 C   0  0  0  0  0  0  0  0  0  0  0  0
  -10.3395  -23.4709   30.4620 N   0  0  0  0  0  0  0  0  0  0  0  0
  -10.8076  -23.2511   26.8994 N   0  0  0  0  0  0  0  0  0  0  0  0
  -11.3070  -23.9462   25.7712 C   0  0  0  0  0  0  0  0  0  0  0  0
  -12.7507  -24.3618   26.0076 C   0  0  0  0  0  0  0  0  0  0  0  0
  -12.8087  -25.4599   26.9575 N   0  0  0  0  0  0  0  0  0  0  0  0
  -12.9288  -26.7598   26.5835 C   0  0  0  0  0  0  0  0  0  0  0  0
  -12.8062  -27.5747   27.5987 N   0  0  0  0  0  0  0  0  0  0  0  0
  -12.6474  -26.7676   28.7055 C   0  0  0  0  0  0  0  0  0  0  0  0
  -12.4560  -27.3271   30.0322 C   0  0  0  0  0  0  0  0  0  0  0  0
  -12.3696  -28.5156   30.3120 O   0  0  0  0  0  0  0  0  0  0  0  0
  -12.3484  -26.4220   31.0301 O   0  0  0  0  0  0  0  0  0  0  0  0
  -12.6710  -25.4361   28.3164 C   0  0  0  0  0  0  0  0  0  0  0  0
  -10.5036  -20.6497   28.8696 H   0  0  0  0  0  0  0  0  0  0  0  0
   -9.4792  -22.0382   28.5465 H   0  0  0  0  0  0  0  0  0  0  0  0
  -12.4338  -20.9508   31.0359 H   0  0  0  0  0  0  0  0  0  0  0  0
  -12.4495  -21.4261   33.6758 H   0  0  0  0  0  0  0  0  0  0  0  0
  -11.2383  -22.6790   35.4506 H   0  0  0  0  0  0  0  0  0  0  0  0
   -9.5592  -24.4013   34.8309 H   0  0  0  0  0  0  0  0  0  0  0  0
   -9.1338  -24.9601   32.4784 H   0  0  0  0  0  0  0  0  0  0  0  0
   -9.8363  -23.3661   27.1622 H   0  0  0  0  0  0  0  0  0  0  0  0
  -11.2437  -23.2225   24.9561 H   0  0  0  0  0  0  0  0  0  0  0  0
  -10.6629  -24.8031   25.5737 H   0  0  0  0  0  0  0  0  0  0  0  0
  -13.2551  -24.7135   25.1050 H   0  0  0  0  0  0  0  0  0  0  0  0
  -13.3618  -23.5615   26.3913 H   0  0  0  0  0  0  0  0  0  0  0  0
  -13.0686  -27.0602   25.5592 H   0  0  0  0  0  0  0  0  0  0  0  0
  -12.0492  -26.9956   31.7645 H   0  0  0  0  0  0  0  0  0  0  0  0
  -12.5641  -24.5237   28.8853 H   0  0  0  0  0  0  0  0  0  0  0  0
  1  2  2  0
  2  3  1  0
  3  4  1  0
  4  5  2  0
  5  6  1  0
  6  7  1  0
  7  8  2  0
  8  9  1  0
  9 10  2  0
 10 11  1  0
 11 12  2  0
  2 13  1  0
 13 14  1  0
 14 15  1  0
 15 16  1  0
 16 17  1  0
 17 18  2  0
 18 19  1  0
 19 20  1  0
 20 21  2  0
 20 22  1  0
 19 23  2  0
 12  4  1  0
 23 16  1  0
 11  6  1  0
  3 24  1  0
  3 25  1  0
  5 26  1  0
  7 27  1  0
  8 28  1  0
  9 29  1  0
 10 30  1  0
 13 31  1  0
 14 32  1  0
 14 33  1  0
 15 34  1  0
 15 35  1  0
 17 36  1  0
 22 37  1  0
 23 38  1  0
M  END
>  <Energy>  (166) 
79.745925681386709

>  <compound_id>  (166) 
46107

>  <target_id>  (166) 
1

>  <reference_id>  (166) 
52

>  <inspiration_ids>  (166) 
[64, 52]

>  <energy_score>  (166) 
-13.216290640605962

>  <distance_score>  (166) 
1.9778379198666836

>  <path>  (166) 
/opt/xchem-fragalysis-2/maxwin/BulkDock/SCRATCH/511022/C46107-P52/C46107-P52.minimised.mol

>  <scratch_subdir>  (166) 
/opt/xchem-fragalysis-2/maxwin/BulkDock/SCRATCH/511022/C46107-P52

>  <fragmenstein_runtime>  (166) 
3.897165060043335

>  <fragmenstein_outcome>  (166) 
too moved

>  <fragmenstein_mode>  (166) 
expansion

>  <fragmenstein_error>  (166) 


$$$$
C46109-P64
     RDKit          3D

 36 38  0  0  0  0  0  0  0  0999 V2000
  -17.2625  -27.3853   24.9103 O   0  0  0  0  0  0  0  0  0  0  0  0
  -16.6494  -26.7765   25.7756 C   0  0  0  0  0  0  0  0  0  0  0  0
  -16.8255  -27.0347   27.1023 O   0  0  0  0  0  0  0  0  0  0  0  0
  -15.6310  -25.7652   25.5037 C   0  0  0  0  0  0  0  0  0  0  0  0
  -14.3928  -25.6876   26.1132 C   0  0  0  0  0  0  0  0  0  0  0  0
  -13.7983  -24.5797   25.5902 N   0  0  0  0  0  0  0  0  0  0  0  0
  -12.5312  -23.9897   25.9540 C   0  0  0  0  0  0  0  0  0  0  0  0
  -11.3883  -24.9632   26.0890 C   0  0  0  0  0  0  0  0  0  0  0  0
  -11.4775  -25.7258   27.3506 N   0  0  0  0  0  0  0  0  0  0  0  0
  -10.5212  -25.2372   28.6479 S   0  0  0  0  0  0  0  0  0  0  0  0
  -10.4446  -26.3841   29.5125 O   0  0  0  0  0  0  0  0  0  0  0  0
   -9.3462  -24.6303   28.1001 O   0  0  0  0  0  0  0  0  0  0  0  0
  -11.2134  -23.8912   29.4902 C   0  0  0  0  0  0  0  0  0  0  0  0
  -11.5939  -22.6357   29.0489 C   0  0  0  0  0  0  0  0  0  0  0  0
  -12.0735  -21.8535   30.0543 N   0  0  0  0  0  0  0  0  0  0  0  0
  -11.9324  -22.5832   31.1351 C   0  0  0  0  0  0  0  0  0  0  0  0
  -12.3772  -22.3764   32.4632 C   0  0  0  0  0  0  0  0  0  0  0  0
  -12.0796  -23.2909   33.3968 C   0  0  0  0  0  0  0  0  0  0  0  0
  -11.1947  -24.4068   33.1264 C   0  0  0  0  0  0  0  0  0  0  0  0
  -10.7637  -24.6009   31.8759 C   0  0  0  0  0  0  0  0  0  0  0  0
  -11.2473  -23.7705   30.8667 N   0  0  0  0  0  0  0  0  0  0  0  0
  -14.6829  -24.0002   24.7335 C   0  0  0  0  0  0  0  0  0  0  0  0
  -15.7604  -24.7353   24.5903 N   0  0  0  0  0  0  0  0  0  0  0  0
  -16.3838  -26.3711   27.6736 H   0  0  0  0  0  0  0  0  0  0  0  0
  -13.9217  -26.3307   26.8395 H   0  0  0  0  0  0  0  0  0  0  0  0
  -12.7051  -23.4835   26.8940 H   0  0  0  0  0  0  0  0  0  0  0  0
  -12.2823  -23.2556   25.1809 H   0  0  0  0  0  0  0  0  0  0  0  0
  -11.3815  -25.6812   25.2615 H   0  0  0  0  0  0  0  0  0  0  0  0
  -10.4520  -24.4130   26.0312 H   0  0  0  0  0  0  0  0  0  0  0  0
  -11.2870  -26.7237   27.2116 H   0  0  0  0  0  0  0  0  0  0  0  0
  -11.5069  -22.2408   28.0461 H   0  0  0  0  0  0  0  0  0  0  0  0
  -13.0162  -21.5379   32.6956 H   0  0  0  0  0  0  0  0  0  0  0  0
  -12.4701  -23.1847   34.3974 H   0  0  0  0  0  0  0  0  0  0  0  0
  -10.9281  -25.0913   33.9231 H   0  0  0  0  0  0  0  0  0  0  0  0
  -10.1328  -25.4433   31.6255 H   0  0  0  0  0  0  0  0  0  0  0  0
  -14.4895  -23.0519   24.2451 H   0  0  0  0  0  0  0  0  0  0  0  0
  1  2  2  0
  2  3  1  0
  2  4  1  0
  4  5  2  0
  5  6  1  0
  6  7  1  0
  7  8  1  0
  8  9  1  0
  9 10  1  0
 10 11  2  0
 10 12  2  0
 10 13  1  0
 13 14  2  0
 14 15  1  0
 15 16  2  0
 16 17  1  0
 17 18  2  0
 18 19  1  0
 19 20  2  0
 20 21  1  0
  6 22  1  0
 22 23  2  0
 23  4  1  0
 21 13  1  0
 21 16  1  0
  3 24  1  0
  5 25  1  0
  7 26  1  0
  7 27  1  0
  8 28  1  0
  8 29  1  0
  9 30  1  0
 14 31  1  0
 17 32  1  0
 18 33  1  0
 19 34  1  0
 20 35  1  0
 22 36  1  0
M  END
>  <Energy>  (167) 
-36.029048039150332

>  <compound_id>  (167) 
46109

>  <target_id>  (167) 
1

>  <reference_id>  (167) 
64

>  <inspiration_ids>  (167) 
[64, 52]

>  <energy_score>  (167) 
-29.637213058446086

>  <distance_score>  (167) 
3.80922065399168

>  <path>  (167) 
/opt/xchem-fragalysis-2/maxwin/BulkDock/SCRATCH/511022/C46109-P64/C46109-P64.minimised.mol

>  <scratch_subdir>  (167) 
/opt/xchem-fragalysis-2/maxwin/BulkDock/SCRATCH/511022/C46109-P64

>  <fragmenstein_runtime>  (167) 
6.452117204666138

>  <fragmenstein_outcome>  (167) 
too moved

>  <fragmenstein_mode>  (167) 
expansion

>  <fragmenstein_error>  (167) 


$$$$
C46109-P52
     RDKit          3D

 36 38  0  0  0  0  0  0  0  0999 V2000
  -12.1475  -27.5104   30.5530 O   0  0  0  0  0  0  0  0  0  0  0  0
  -12.5151  -27.7680   29.4159 C   0  0  0  0  0  0  0  0  0  0  0  0
  -13.2127  -28.8889   29.0957 O   0  0  0  0  0  0  0  0  0  0  0  0
  -12.3321  -26.9018   28.2636 C   0  0  0  0  0  0  0  0  0  0  0  0
  -11.5705  -25.7601   28.1344 C   0  0  0  0  0  0  0  0  0  0  0  0
  -12.0251  -25.1676   26.9924 N   0  0  0  0  0  0  0  0  0  0  0  0
  -12.1611  -23.7447   26.7549 C   0  0  0  0  0  0  0  0  0  0  0  0
  -11.0510  -22.8124   27.1546 C   0  0  0  0  0  0  0  0  0  0  0  0
  -10.7778  -22.7319   28.6016 N   0  0  0  0  0  0  0  0  0  0  0  0
  -11.9561  -21.9686   29.5325 S   0  0  0  0  0  0  0  0  0  0  0  0
  -13.1353  -22.7961   29.5108 O   0  0  0  0  0  0  0  0  0  0  0  0
  -11.9582  -20.5845   29.1405 O   0  0  0  0  0  0  0  0  0  0  0  0
  -11.4628  -21.9156   31.1716 C   0  0  0  0  0  0  0  0  0  0  0  0
  -11.2880  -20.8833   32.0566 C   0  0  0  0  0  0  0  0  0  0  0  0
  -10.7154  -21.3027   33.2163 N   0  0  0  0  0  0  0  0  0  0  0  0
  -10.5497  -22.5917   33.0650 C   0  0  0  0  0  0  0  0  0  0  0  0
   -9.9132  -23.5706   33.8759 C   0  0  0  0  0  0  0  0  0  0  0  0
   -9.8165  -24.8354   33.4362 C   0  0  0  0  0  0  0  0  0  0  0  0
  -10.3712  -25.2400   32.1740 C   0  0  0  0  0  0  0  0  0  0  0  0
  -11.0264  -24.3353   31.4467 C   0  0  0  0  0  0  0  0  0  0  0  0
  -11.0663  -23.0197   31.8593 N   0  0  0  0  0  0  0  0  0  0  0  0
  -12.7815  -26.1010   26.3342 C   0  0  0  0  0  0  0  0  0  0  0  0
  -13.0052  -27.1547   27.0870 N   0  0  0  0  0  0  0  0  0  0  0  0
  -13.4518  -28.8090   28.1414 H   0  0  0  0  0  0  0  0  0  0  0  0
  -10.8618  -25.2884   28.7914 H   0  0  0  0  0  0  0  0  0  0  0  0
  -12.3478  -23.6208   25.6832 H   0  0  0  0  0  0  0  0  0  0  0  0
  -13.0759  -23.5051   27.2681 H   0  0  0  0  0  0  0  0  0  0  0  0
  -10.1297  -23.1542   26.6781 H   0  0  0  0  0  0  0  0  0  0  0  0
  -11.2810  -21.8068   26.7928 H   0  0  0  0  0  0  0  0  0  0  0  0
   -9.8880  -22.2539   28.7543 H   0  0  0  0  0  0  0  0  0  0  0  0
  -11.4814  -19.8370   31.9011 H   0  0  0  0  0  0  0  0  0  0  0  0
   -9.5104  -23.2877   34.8365 H   0  0  0  0  0  0  0  0  0  0  0  0
   -9.3680  -25.6082   34.0458 H   0  0  0  0  0  0  0  0  0  0  0  0
  -10.3324  -26.2803   31.8948 H   0  0  0  0  0  0  0  0  0  0  0  0
  -11.5469  -24.6002   30.5465 H   0  0  0  0  0  0  0  0  0  0  0  0
  -13.1979  -25.9343   25.3494 H   0  0  0  0  0  0  0  0  0  0  0  0
  1  2  2  0
  2  3  1  0
  2  4  1  0
  4  5  2  0
  5  6  1  0
  6  7  1  0
  7  8  1  0
  8  9  1  0
  9 10  1  0
 10 11  2  0
 10 12  2  0
 10 13  1  0
 13 14  2  0
 14 15  1  0
 15 16  2  0
 16 17  1  0
 17 18  2  0
 18 19  1  0
 19 20  2  0
 20 21  1  0
  6 22  1  0
 22 23  2  0
 23  4  1  0
 21 13  1  0
 21 16  1  0
  3 24  1  0
  5 25  1  0
  7 26  1  0
  7 27  1  0
  8 28  1  0
  8 29  1  0
  9 30  1  0
 14 31  1  0
 17 32  1  0
 18 33  1  0
 19 34  1  0
 20 35  1  0
 22 36  1  0
M  END
>  <Energy>  (168) 
-51.240981010689268

>  <compound_id>  (168) 
46109

>  <target_id>  (168) 
1

>  <reference_id>  (168) 
52

>  <inspiration_ids>  (168) 
[64, 52]

>  <energy_score>  (168) 
-40.91344987144841

>  <distance_score>  (168) 
2.6965073635190033

>  <path>  (168) 
/opt/xchem-fragalysis-2/maxwin/BulkDock/SCRATCH/511022/C46109-P52/C46109-P52.minimised.mol

>  <scratch_subdir>  (168) 
/opt/xchem-fragalysis-2/maxwin/BulkDock/SCRATCH/511022/C46109-P52

>  <fragmenstein_runtime>  (168) 
3.0289626121520996

>  <fragmenstein_outcome>  (168) 
too moved

>  <fragmenstein_mode>  (168) 
expansion

>  <fragmenstein_error>  (168) 


$$$$
C46110-P64
     RDKit          3D

 35 37  0  0  0  0  0  0  0  0999 V2000
  -12.6183  -28.2582   27.9431 O   0  0  0  0  0  0  0  0  0  0  0  0
  -11.9023  -27.4197   27.4076 C   0  0  0  0  0  0  0  0  0  0  0  0
  -10.7330  -27.0155   27.9641 O   0  0  0  0  0  0  0  0  0  0  0  0
  -12.1814  -26.6535   26.2036 C   0  0  0  0  0  0  0  0  0  0  0  0
  -12.8846  -25.4574   26.3042 C   0  0  0  0  0  0  0  0  0  0  0  0
  -11.8172  -24.6101   26.0265 N   0  0  0  0  0  0  0  0  0  0  0  0
  -11.0539  -23.9915   27.0987 C   0  0  0  0  0  0  0  0  0  0  0  0
  -11.7088  -22.7261   27.5045 C   0  0  0  0  0  0  0  0  0  0  0  0
  -11.7050  -22.4881   28.8842 N   0  0  0  0  0  0  0  0  0  0  0  0
  -11.3886  -23.3190   29.9530 C   0  0  0  0  0  0  0  0  0  0  0  0
  -10.9608  -24.4281   29.9759 O   0  0  0  0  0  0  0  0  0  0  0  0
  -11.7536  -22.6860   31.1699 C   0  0  0  0  0  0  0  0  0  0  0  0
  -12.9043  -22.0127   31.5245 C   0  0  0  0  0  0  0  0  0  0  0  0
  -13.1290  -21.9966   32.8495 N   0  0  0  0  0  0  0  0  0  0  0  0
  -12.3941  -23.0272   33.1747 C   0  0  0  0  0  0  0  0  0  0  0  0
  -12.7003  -24.1766   33.8947 C   0  0  0  0  0  0  0  0  0  0  0  0
  -11.7437  -25.1035   34.0921 C   0  0  0  0  0  0  0  0  0  0  0  0
  -10.4502  -24.9656   33.5230 C   0  0  0  0  0  0  0  0  0  0  0  0
  -10.2661  -24.0610   32.5724 C   0  0  0  0  0  0  0  0  0  0  0  0
  -11.3077  -23.1809   32.3445 N   0  0  0  0  0  0  0  0  0  0  0  0
  -11.1149  -25.2379   25.0578 C   0  0  0  0  0  0  0  0  0  0  0  0
  -11.2756  -26.5341   25.1638 N   0  0  0  0  0  0  0  0  0  0  0  0
  -10.6490  -27.3897   28.8610 H   0  0  0  0  0  0  0  0  0  0  0  0
  -13.6397  -25.1409   27.0057 H   0  0  0  0  0  0  0  0  0  0  0  0
  -10.0063  -23.9039   26.8274 H   0  0  0  0  0  0  0  0  0  0  0  0
  -11.0577  -24.7308   27.8875 H   0  0  0  0  0  0  0  0  0  0  0  0
  -11.3568  -21.8418   26.9950 H   0  0  0  0  0  0  0  0  0  0  0  0
  -12.7528  -22.9065   27.3258 H   0  0  0  0  0  0  0  0  0  0  0  0
  -11.9659  -21.5794   29.2420 H   0  0  0  0  0  0  0  0  0  0  0  0
  -13.7259  -21.7433   30.9045 H   0  0  0  0  0  0  0  0  0  0  0  0
  -13.7331  -24.3123   34.1932 H   0  0  0  0  0  0  0  0  0  0  0  0
  -11.9496  -26.0233   34.6191 H   0  0  0  0  0  0  0  0  0  0  0  0
   -9.6506  -25.5303   33.9130 H   0  0  0  0  0  0  0  0  0  0  0  0
   -9.3627  -24.0347   31.9930 H   0  0  0  0  0  0  0  0  0  0  0  0
  -10.4142  -24.6919   24.4448 H   0  0  0  0  0  0  0  0  0  0  0  0
  1  2  2  0
  2  3  1  0
  2  4  1  0
  4  5  2  0
  5  6  1  0
  6  7  1  0
  7  8  1  0
  8  9  1  0
  9 10  1  0
 10 11  2  0
 10 12  1  0
 12 13  2  0
 13 14  1  0
 14 15  2  0
 15 16  1  0
 16 17  2  0
 17 18  1  0
 18 19  2  0
 19 20  1  0
  6 21  1  0
 21 22  2  0
 22  4  1  0
 20 12  1  0
 20 15  1  0
  3 23  1  0
  5 24  1  0
  7 25  1  0
  7 26  1  0
  8 27  1  0
  8 28  1  0
  9 29  1  0
 13 30  1  0
 16 31  1  0
 17 32  1  0
 18 33  1  0
 19 34  1  0
 21 35  1  0
M  END
>  <Energy>  (169) 
121.54679287274749

>  <compound_id>  (169) 
46110

>  <target_id>  (169) 
1

>  <reference_id>  (169) 
64

>  <inspiration_ids>  (169) 
[64, 52]

>  <energy_score>  (169) 
66.31961230686798

>  <distance_score>  (169) 
2.796589499740392

>  <path>  (169) 
/opt/xchem-fragalysis-2/maxwin/BulkDock/SCRATCH/511022/C46110-P64/C46110-P64.minimised.mol

>  <scratch_subdir>  (169) 
/opt/xchem-fragalysis-2/maxwin/BulkDock/SCRATCH/511022/C46110-P64

>  <fragmenstein_runtime>  (169) 
4.602048635482788

>  <fragmenstein_outcome>  (169) 
too moved

>  <fragmenstein_mode>  (169) 
expansion

>  <fragmenstein_error>  (169) 


$$$$
C46110-P52
     RDKit          3D

 35 37  0  0  0  0  0  0  0  0999 V2000
  -13.3325  -29.1694   29.0262 O   0  0  0  0  0  0  0  0  0  0  0  0
  -13.6318  -28.2123   28.3242 C   0  0  0  0  0  0  0  0  0  0  0  0
  -14.8652  -28.1677   27.7601 O   0  0  0  0  0  0  0  0  0  0  0  0
  -12.7793  -27.0722   28.0161 C   0  0  0  0  0  0  0  0  0  0  0  0
  -13.1013  -25.9726   27.2427 C   0  0  0  0  0  0  0  0  0  0  0  0
  -11.9937  -25.1706   27.2573 N   0  0  0  0  0  0  0  0  0  0  0  0
  -11.8929  -23.8790   26.6187 C   0  0  0  0  0  0  0  0  0  0  0  0
  -11.0909  -22.7986   27.3396 C   0  0  0  0  0  0  0  0  0  0  0  0
  -11.3509  -22.5750   28.7335 N   0  0  0  0  0  0  0  0  0  0  0  0
  -12.4613  -22.9219   29.5390 C   0  0  0  0  0  0  0  0  0  0  0  0
  -13.4345  -23.5585   29.2882 O   0  0  0  0  0  0  0  0  0  0  0  0
  -12.2845  -22.4100   30.8618 C   0  0  0  0  0  0  0  0  0  0  0  0
  -13.0476  -21.4977   31.5554 C   0  0  0  0  0  0  0  0  0  0  0  0
  -12.5714  -21.3008   32.8192 N   0  0  0  0  0  0  0  0  0  0  0  0
  -11.6479  -22.2231   32.9702 C   0  0  0  0  0  0  0  0  0  0  0  0
  -10.9313  -22.6537   34.1141 C   0  0  0  0  0  0  0  0  0  0  0  0
   -9.9786  -23.5972   33.9942 C   0  0  0  0  0  0  0  0  0  0  0  0
   -9.6881  -24.2294   32.7213 C   0  0  0  0  0  0  0  0  0  0  0  0
  -10.4136  -23.8803   31.6500 C   0  0  0  0  0  0  0  0  0  0  0  0
  -11.3877  -22.8905   31.7823 N   0  0  0  0  0  0  0  0  0  0  0  0
  -11.0404  -25.8025   27.9934 C   0  0  0  0  0  0  0  0  0  0  0  0
  -11.4797  -26.9415   28.4796 N   0  0  0  0  0  0  0  0  0  0  0  0
  -15.2721  -28.9958   28.0863 H   0  0  0  0  0  0  0  0  0  0  0  0
  -14.0111  -25.7034   26.7242 H   0  0  0  0  0  0  0  0  0  0  0  0
  -12.9101  -23.5268   26.4313 H   0  0  0  0  0  0  0  0  0  0  0  0
  -11.4302  -24.0588   25.6444 H   0  0  0  0  0  0  0  0  0  0  0  0
  -11.2755  -21.8415   26.8468 H   0  0  0  0  0  0  0  0  0  0  0  0
  -10.0243  -23.0283   27.2718 H   0  0  0  0  0  0  0  0  0  0  0  0
  -10.7456  -21.9492   29.2573 H   0  0  0  0  0  0  0  0  0  0  0  0
  -13.9338  -20.9825   31.2147 H   0  0  0  0  0  0  0  0  0  0  0  0
  -11.2069  -22.2222   35.0690 H   0  0  0  0  0  0  0  0  0  0  0  0
   -9.4257  -23.9387   34.8601 H   0  0  0  0  0  0  0  0  0  0  0  0
   -8.9225  -24.9966   32.6734 H   0  0  0  0  0  0  0  0  0  0  0  0
  -10.2795  -24.3485   30.6843 H   0  0  0  0  0  0  0  0  0  0  0  0
  -10.0532  -25.3944   28.1612 H   0  0  0  0  0  0  0  0  0  0  0  0
  1  2  2  0
  2  3  1  0
  2  4  1  0
  4  5  2  0
  5  6  1  0
  6  7  1  0
  7  8  1  0
  8  9  1  0
  9 10  1  0
 10 11  2  0
 10 12  1  0
 12 13  2  0
 13 14  1  0
 14 15  2  0
 15 16  1  0
 16 17  2  0
 17 18  1  0
 18 19  2  0
 19 20  1  0
  6 21  1  0
 21 22  2  0
 22  4  1  0
 20 12  1  0
 20 15  1  0
  3 23  1  0
  5 24  1  0
  7 25  1  0
  7 26  1  0
  8 27  1  0
  8 28  1  0
  9 29  1  0
 13 30  1  0
 16 31  1  0
 17 32  1  0
 18 33  1  0
 19 34  1  0
 21 35  1  0
M  END
>  <Energy>  (170) 
21.901440869365743

>  <compound_id>  (170) 
46110

>  <target_id>  (170) 
1

>  <reference_id>  (170) 
52

>  <inspiration_ids>  (170) 
[64, 52]

>  <energy_score>  (170) 
-33.3257396965131

>  <distance_score>  (170) 
2.744738553039988

>  <path>  (170) 
/opt/xchem-fragalysis-2/maxwin/BulkDock/SCRATCH/511022/C46110-P52/C46110-P52.minimised.mol

>  <scratch_subdir>  (170) 
/opt/xchem-fragalysis-2/maxwin/BulkDock/SCRATCH/511022/C46110-P52

>  <fragmenstein_runtime>  (170) 
5.436464786529541

>  <fragmenstein_outcome>  (170) 
too moved

>  <fragmenstein_mode>  (170) 
expansion

>  <fragmenstein_error>  (170) 


$$$$
C46111-P64
     RDKit          3D

 38 40  0  0  0  0  0  0  0  0999 V2000
  -14.6861  -23.0894   23.7452 O   0  0  0  0  0  0  0  0  0  0  0  0
  -14.5395  -23.7306   24.7493 C   0  0  0  0  0  0  0  0  0  0  0  0
  -15.6926  -24.6575   25.2175 C   0  0  0  0  0  0  0  0  0  0  0  0
  -15.1898  -25.9118   25.7750 N   0  0  0  0  0  0  0  0  0  0  0  0
  -15.5307  -26.4444   26.9807 C   0  0  0  0  0  0  0  0  0  0  0  0
  -14.5169  -27.1038   27.4987 N   0  0  0  0  0  0  0  0  0  0  0  0
  -13.4745  -26.9838   26.6013 C   0  0  0  0  0  0  0  0  0  0  0  0
  -12.0643  -27.3209   26.8441 C   0  0  0  0  0  0  0  0  0  0  0  0
  -11.1594  -27.2760   26.0182 O   0  0  0  0  0  0  0  0  0  0  0  0
  -11.7878  -27.6095   28.1309 O   0  0  0  0  0  0  0  0  0  0  0  0
  -13.9829  -26.4620   25.4337 C   0  0  0  0  0  0  0  0  0  0  0  0
  -13.3893  -23.8847   25.6123 N   0  0  0  0  0  0  0  0  0  0  0  0
  -12.0475  -23.4004   25.4868 C   0  0  0  0  0  0  0  0  0  0  0  0
  -11.1086  -24.2404   26.3321 C   0  0  0  0  0  0  0  0  0  0  0  0
  -11.1710  -24.1258   27.8125 C   0  0  0  0  0  0  0  0  0  0  0  0
  -11.6843  -23.1292   28.6092 C   0  0  0  0  0  0  0  0  0  0  0  0
  -11.4219  -23.4936   29.9026 N   0  0  0  0  0  0  0  0  0  0  0  0
  -11.7096  -22.8190   31.0874 C   0  0  0  0  0  0  0  0  0  0  0  0
  -11.2798  -23.3384   32.2473 C   0  0  0  0  0  0  0  0  0  0  0  0
  -10.4661  -24.5433   32.2208 C   0  0  0  0  0  0  0  0  0  0  0  0
  -10.1844  -25.1846   31.0698 C   0  0  0  0  0  0  0  0  0  0  0  0
  -10.6830  -24.6734   29.8373 C   0  0  0  0  0  0  0  0  0  0  0  0
  -10.5372  -25.0770   28.5900 N   0  0  0  0  0  0  0  0  0  0  0  0
  -16.3064  -24.1527   25.9648 H   0  0  0  0  0  0  0  0  0  0  0  0
  -16.3117  -24.9387   24.3607 H   0  0  0  0  0  0  0  0  0  0  0  0
  -16.4765  -26.2607   27.4760 H   0  0  0  0  0  0  0  0  0  0  0  0
  -10.8534  -27.3043   28.2162 H   0  0  0  0  0  0  0  0  0  0  0  0
  -13.4907  -26.2697   24.4930 H   0  0  0  0  0  0  0  0  0  0  0  0
  -13.6510  -24.4361   26.4162 H   0  0  0  0  0  0  0  0  0  0  0  0
  -11.9712  -22.3810   25.7999 H   0  0  0  0  0  0  0  0  0  0  0  0
  -11.7682  -23.4251   24.4326 H   0  0  0  0  0  0  0  0  0  0  0  0
  -10.0769  -24.1011   26.0554 H   0  0  0  0  0  0  0  0  0  0  0  0
  -11.2955  -25.2470   26.0299 H   0  0  0  0  0  0  0  0  0  0  0  0
  -12.1380  -22.1874   28.3718 H   0  0  0  0  0  0  0  0  0  0  0  0
  -12.3185  -21.9339   31.0288 H   0  0  0  0  0  0  0  0  0  0  0  0
  -11.5684  -22.9098   33.1978 H   0  0  0  0  0  0  0  0  0  0  0  0
  -10.1106  -24.9464   33.1620 H   0  0  0  0  0  0  0  0  0  0  0  0
   -9.6001  -26.0960   31.0694 H   0  0  0  0  0  0  0  0  0  0  0  0
  1  2  2  0
  2  3  1  0
  3  4  1  0
  4  5  1  0
  5  6  2  0
  6  7  1  0
  7  8  1  0
  8  9  2  0
  8 10  1  0
  7 11  2  0
  2 12  1  0
 12 13  1  0
 13 14  1  0
 14 15  1  0
 15 16  2  0
 16 17  1  0
 17 18  1  0
 18 19  2  0
 19 20  1  0
 20 21  2  0
 21 22  1  0
 22 23  2  0
 11  4  1  0
 23 15  1  0
 22 17  1  0
  3 24  1  0
  3 25  1  0
  5 26  1  0
 10 27  1  0
 11 28  1  0
 12 29  1  0
 13 30  1  0
 13 31  1  0
 14 32  1  0
 14 33  1  0
 16 34  1  0
 18 35  1  0
 19 36  1  0
 20 37  1  0
 21 38  1  0
M  END
>  <Energy>  (171) 
84.453765840609066

>  <compound_id>  (171) 
46111

>  <target_id>  (171) 
1

>  <reference_id>  (171) 
64

>  <inspiration_ids>  (171) 
[64, 52]

>  <energy_score>  (171) 
-2.7097416056377313

>  <distance_score>  (171) 
3.260406838370112

>  <path>  (171) 
/opt/xchem-fragalysis-2/maxwin/BulkDock/SCRATCH/511022/C46111-P64/C46111-P64.minimised.mol

>  <scratch_subdir>  (171) 
/opt/xchem-fragalysis-2/maxwin/BulkDock/SCRATCH/511022/C46111-P64

>  <fragmenstein_runtime>  (171) 
8.379703760147095

>  <fragmenstein_outcome>  (171) 
too moved

>  <fragmenstein_mode>  (171) 
expansion

>  <fragmenstein_error>  (171) 


$$$$
C46111-P52
     RDKit          3D

 38 40  0  0  0  0  0  0  0  0999 V2000
  -10.9939  -24.1253   25.7010 O   0  0  0  0  0  0  0  0  0  0  0  0
  -11.8187  -23.9555   26.5050 C   0  0  0  0  0  0  0  0  0  0  0  0
  -13.0604  -24.8105   26.5800 C   0  0  0  0  0  0  0  0  0  0  0  0
  -12.8506  -25.9668   27.4093 N   0  0  0  0  0  0  0  0  0  0  0  0
  -12.9271  -27.2365   26.9484 C   0  0  0  0  0  0  0  0  0  0  0  0
  -12.7623  -28.1076   27.9090 N   0  0  0  0  0  0  0  0  0  0  0  0
  -12.6473  -27.3671   29.0673 C   0  0  0  0  0  0  0  0  0  0  0  0
  -12.5661  -27.9897   30.3753 C   0  0  0  0  0  0  0  0  0  0  0  0
  -12.4978  -29.1873   30.6128 O   0  0  0  0  0  0  0  0  0  0  0  0
  -12.5928  -27.1283   31.4195 O   0  0  0  0  0  0  0  0  0  0  0  0
  -12.6505  -26.0151   28.7574 C   0  0  0  0  0  0  0  0  0  0  0  0
  -11.9167  -22.9053   27.6294 N   0  0  0  0  0  0  0  0  0  0  0  0
  -11.0740  -21.7957   27.9370 C   0  0  0  0  0  0  0  0  0  0  0  0
  -11.4410  -21.0134   29.1737 C   0  0  0  0  0  0  0  0  0  0  0  0
  -11.5844  -21.8289   30.3852 C   0  0  0  0  0  0  0  0  0  0  0  0
  -12.0737  -21.4610   31.6174 C   0  0  0  0  0  0  0  0  0  0  0  0
  -11.5265  -22.3678   32.4806 N   0  0  0  0  0  0  0  0  0  0  0  0
  -11.4699  -22.3413   33.8575 C   0  0  0  0  0  0  0  0  0  0  0  0
  -10.7069  -23.2537   34.4711 C   0  0  0  0  0  0  0  0  0  0  0  0
  -10.0042  -24.2587   33.6979 C   0  0  0  0  0  0  0  0  0  0  0  0
  -10.0960  -24.3017   32.3615 C   0  0  0  0  0  0  0  0  0  0  0  0
  -10.8712  -23.3130   31.7038 C   0  0  0  0  0  0  0  0  0  0  0  0
  -10.9977  -23.0578   30.4292 N   0  0  0  0  0  0  0  0  0  0  0  0
  -13.9286  -24.2888   26.9729 H   0  0  0  0  0  0  0  0  0  0  0  0
  -13.3236  -25.1329   25.5664 H   0  0  0  0  0  0  0  0  0  0  0  0
  -13.0896  -27.4729   25.9091 H   0  0  0  0  0  0  0  0  0  0  0  0
  -12.5083  -27.7733   32.1530 H   0  0  0  0  0  0  0  0  0  0  0  0
  -12.5481  -25.1377   29.3820 H   0  0  0  0  0  0  0  0  0  0  0  0
  -12.7286  -23.0954   28.1984 H   0  0  0  0  0  0  0  0  0  0  0  0
  -11.1269  -21.1399   27.0712 H   0  0  0  0  0  0  0  0  0  0  0  0
  -10.0604  -22.1987   28.0229 H   0  0  0  0  0  0  0  0  0  0  0  0
  -12.3216  -20.4079   29.0194 H   0  0  0  0  0  0  0  0  0  0  0  0
  -10.6382  -20.2994   29.3766 H   0  0  0  0  0  0  0  0  0  0  0  0
  -12.5825  -20.5885   31.9888 H   0  0  0  0  0  0  0  0  0  0  0  0
  -12.0164  -21.5700   34.3855 H   0  0  0  0  0  0  0  0  0  0  0  0
  -10.6215  -23.2596   35.5479 H   0  0  0  0  0  0  0  0  0  0  0  0
   -9.4115  -24.9900   34.2299 H   0  0  0  0  0  0  0  0  0  0  0  0
   -9.5613  -25.0399   31.7750 H   0  0  0  0  0  0  0  0  0  0  0  0
  1  2  2  0
  2  3  1  0
  3  4  1  0
  4  5  1  0
  5  6  2  0
  6  7  1  0
  7  8  1  0
  8  9  2  0
  8 10  1  0
  7 11  2  0
  2 12  1  0
 12 13  1  0
 13 14  1  0
 14 15  1  0
 15 16  2  0
 16 17  1  0
 17 18  1  0
 18 19  2  0
 19 20  1  0
 20 21  2  0
 21 22  1  0
 22 23  2  0
 11  4  1  0
 23 15  1  0
 22 17  1  0
  3 24  1  0
  3 25  1  0
  5 26  1  0
 10 27  1  0
 11 28  1  0
 12 29  1  0
 13 30  1  0
 13 31  1  0
 14 32  1  0
 14 33  1  0
 16 34  1  0
 18 35  1  0
 19 36  1  0
 20 37  1  0
 21 38  1  0
M  END
>  <Energy>  (172) 
75.576452239382846

>  <compound_id>  (172) 
46111

>  <target_id>  (172) 
1

>  <reference_id>  (172) 
52

>  <inspiration_ids>  (172) 
[64, 52]

>  <energy_score>  (172) 
-10.99579634172892

>  <distance_score>  (172) 
2.1527364013679544

>  <path>  (172) 
/opt/xchem-fragalysis-2/maxwin/BulkDock/SCRATCH/511022/C46111-P52/C46111-P52.minimised.mol

>  <scratch_subdir>  (172) 
/opt/xchem-fragalysis-2/maxwin/BulkDock/SCRATCH/511022/C46111-P52

>  <fragmenstein_runtime>  (172) 
4.733922004699707

>  <fragmenstein_outcome>  (172) 
too moved

>  <fragmenstein_mode>  (172) 
expansion

>  <fragmenstein_error>  (172) 


$$$$
C46112-P64
     RDKit          3D

 39 41  0  0  0  0  0  0  0  0999 V2000
  -13.5474  -24.6872   25.9451 C   0  0  0  0  0  0  0  0  0  0  0  0
  -12.3246  -23.7694   25.9988 C   0  0  0  0  0  0  0  0  0  0  0  0
  -11.7132  -23.4612   27.3752 C   0  0  0  0  0  0  0  0  0  0  0  0
  -12.6033  -23.2355   28.5522 N   0  0  0  0  0  0  0  0  0  0  0  0
  -12.0192  -22.2480   29.4854 C   0  0  0  0  0  0  0  0  0  0  0  0
  -12.6325  -22.2353   30.8592 C   0  0  0  0  0  0  0  0  0  0  0  0
  -13.8509  -21.8311   31.4086 C   0  0  0  0  0  0  0  0  0  0  0  0
  -13.9507  -21.9984   32.7386 N   0  0  0  0  0  0  0  0  0  0  0  0
  -12.9722  -22.8247   32.9522 C   0  0  0  0  0  0  0  0  0  0  0  0
  -12.8928  -23.9009   33.8378 C   0  0  0  0  0  0  0  0  0  0  0  0
  -11.7993  -24.6782   33.8857 C   0  0  0  0  0  0  0  0  0  0  0  0
  -10.6970  -24.4215   33.0325 C   0  0  0  0  0  0  0  0  0  0  0  0
  -10.8848  -23.5498   32.0481 C   0  0  0  0  0  0  0  0  0  0  0  0
  -12.0409  -22.8272   31.9478 N   0  0  0  0  0  0  0  0  0  0  0  0
  -10.8235  -24.5993   27.7390 C   0  0  0  0  0  0  0  0  0  0  0  0
   -9.9730  -24.5618   28.7304 N   0  0  0  0  0  0  0  0  0  0  0  0
  -10.0455  -25.7989   29.3037 C   0  0  0  0  0  0  0  0  0  0  0  0
   -9.4603  -26.0634   30.5976 C   0  0  0  0  0  0  0  0  0  0  0  0
   -8.8205  -25.2433   31.2341 O   0  0  0  0  0  0  0  0  0  0  0  0
   -9.5524  -27.3168   31.0706 O   0  0  0  0  0  0  0  0  0  0  0  0
  -10.6969  -26.6370   28.4384 C   0  0  0  0  0  0  0  0  0  0  0  0
  -11.0476  -25.8913   27.3602 N   0  0  0  0  0  0  0  0  0  0  0  0
  -14.4200  -24.1404   25.5734 H   0  0  0  0  0  0  0  0  0  0  0  0
  -13.8010  -25.1244   26.9119 H   0  0  0  0  0  0  0  0  0  0  0  0
  -13.3782  -25.5149   25.2485 H   0  0  0  0  0  0  0  0  0  0  0  0
  -11.5477  -24.2423   25.3770 H   0  0  0  0  0  0  0  0  0  0  0  0
  -12.5321  -22.8816   25.4068 H   0  0  0  0  0  0  0  0  0  0  0  0
  -11.1085  -22.5651   27.2525 H   0  0  0  0  0  0  0  0  0  0  0  0
  -12.5965  -24.1063   29.0942 H   0  0  0  0  0  0  0  0  0  0  0  0
  -10.9629  -22.3964   29.5589 H   0  0  0  0  0  0  0  0  0  0  0  0
  -12.0944  -21.2441   29.0678 H   0  0  0  0  0  0  0  0  0  0  0  0
  -14.7091  -21.3616   30.9652 H   0  0  0  0  0  0  0  0  0  0  0  0
  -13.8186  -24.1377   34.3426 H   0  0  0  0  0  0  0  0  0  0  0  0
  -11.7490  -25.5677   34.5001 H   0  0  0  0  0  0  0  0  0  0  0  0
   -9.7982  -24.9973   33.1744 H   0  0  0  0  0  0  0  0  0  0  0  0
  -10.1877  -23.4829   31.2695 H   0  0  0  0  0  0  0  0  0  0  0  0
   -9.0540  -27.1966   31.9217 H   0  0  0  0  0  0  0  0  0  0  0  0
  -10.9948  -27.6569   28.5168 H   0  0  0  0  0  0  0  0  0  0  0  0
  -11.6303  -26.2140   26.6012 H   0  0  0  0  0  0  0  0  0  0  0  0
  1  2  1  0
  2  3  1  0
  3  4  1  0
  4  5  1  0
  5  6  1  0
  6  7  2  0
  7  8  1  0
  8  9  2  0
  9 10  1  0
 10 11  2  0
 11 12  1  0
 12 13  2  0
 13 14  1  0
  3 15  1  0
 15 16  2  0
 16 17  1  0
 17 18  1  0
 18 19  2  0
 18 20  1  0
 17 21  2  0
 21 22  1  0
 14  6  1  0
 22 15  1  0
 14  9  1  0
  1 23  1  0
  1 24  1  0
  1 25  1  0
  2 26  1  0
  2 27  1  0
  3 28  1  0
  4 29  1  0
  5 30  1  0
  5 31  1  0
  7 32  1  0
 10 33  1  0
 11 34  1  0
 12 35  1  0
 13 36  1  0
 20 37  1  0
 21 38  1  0
 22 39  1  0
M  END
>  <Energy>  (173) 
81.196613829468163

>  <compound_id>  (173) 
46112

>  <target_id>  (173) 
1

>  <reference_id>  (173) 
64

>  <inspiration_ids>  (173) 
[64, 52]

>  <energy_score>  (173) 
6.6540257624552055

>  <distance_score>  (173) 
2.4174207257478173

>  <path>  (173) 
/opt/xchem-fragalysis-2/maxwin/BulkDock/SCRATCH/511022/C46112-P64/C46112-P64.minimised.mol

>  <scratch_subdir>  (173) 
/opt/xchem-fragalysis-2/maxwin/BulkDock/SCRATCH/511022/C46112-P64

>  <fragmenstein_runtime>  (173) 
5.079685211181641

>  <fragmenstein_outcome>  (173) 
too moved

>  <fragmenstein_mode>  (173) 
expansion

>  <fragmenstein_error>  (173) 


$$$$
C46112-P52
     RDKit          3D

 39 41  0  0  0  0  0  0  0  0999 V2000
  -13.4939  -23.6014   25.3954 C   0  0  0  0  0  0  0  0  0  0  0  0
  -12.1041  -23.1509   25.8861 C   0  0  0  0  0  0  0  0  0  0  0  0
  -11.6800  -23.6135   27.2786 C   0  0  0  0  0  0  0  0  0  0  0  0
  -12.1351  -22.5201   28.1359 N   0  0  0  0  0  0  0  0  0  0  0  0
  -12.4395  -22.7834   29.5217 C   0  0  0  0  0  0  0  0  0  0  0  0
  -11.2880  -23.1156   30.3596 C   0  0  0  0  0  0  0  0  0  0  0  0
  -10.1367  -23.8220   30.0994 C   0  0  0  0  0  0  0  0  0  0  0  0
   -9.4039  -24.0108   31.2220 N   0  0  0  0  0  0  0  0  0  0  0  0
  -10.1165  -23.4862   32.1859 C   0  0  0  0  0  0  0  0  0  0  0  0
   -9.9157  -23.5328   33.5823 C   0  0  0  0  0  0  0  0  0  0  0  0
  -10.8107  -22.9380   34.3818 C   0  0  0  0  0  0  0  0  0  0  0  0
  -11.9335  -22.1880   33.8597 C   0  0  0  0  0  0  0  0  0  0  0  0
  -12.1403  -22.1707   32.5374 C   0  0  0  0  0  0  0  0  0  0  0  0
  -11.2532  -22.8512   31.7117 N   0  0  0  0  0  0  0  0  0  0  0  0
  -12.1289  -25.0209   27.6113 C   0  0  0  0  0  0  0  0  0  0  0  0
  -12.4183  -25.5260   28.8006 N   0  0  0  0  0  0  0  0  0  0  0  0
  -12.8766  -26.8073   28.6059 C   0  0  0  0  0  0  0  0  0  0  0  0
  -13.3451  -27.7092   29.6466 C   0  0  0  0  0  0  0  0  0  0  0  0
  -13.7306  -28.8578   29.4684 O   0  0  0  0  0  0  0  0  0  0  0  0
  -13.3502  -27.1981   30.9033 O   0  0  0  0  0  0  0  0  0  0  0  0
  -12.8245  -27.0849   27.2631 C   0  0  0  0  0  0  0  0  0  0  0  0
  -12.2337  -26.0098   26.6679 N   0  0  0  0  0  0  0  0  0  0  0  0
  -13.4674  -24.5450   24.8504 H   0  0  0  0  0  0  0  0  0  0  0  0
  -13.9212  -22.8548   24.7205 H   0  0  0  0  0  0  0  0  0  0  0  0
  -14.2010  -23.8190   26.1915 H   0  0  0  0  0  0  0  0  0  0  0  0
  -11.3382  -23.4962   25.1856 H   0  0  0  0  0  0  0  0  0  0  0  0
  -12.0472  -22.0587   25.8021 H   0  0  0  0  0  0  0  0  0  0  0  0
  -10.5839  -23.6148   27.2924 H   0  0  0  0  0  0  0  0  0  0  0  0
  -11.4661  -21.7507   28.0774 H   0  0  0  0  0  0  0  0  0  0  0  0
  -13.2489  -23.5055   29.6249 H   0  0  0  0  0  0  0  0  0  0  0  0
  -12.8653  -21.8522   29.9036 H   0  0  0  0  0  0  0  0  0  0  0  0
   -9.7960  -24.2493   29.1702 H   0  0  0  0  0  0  0  0  0  0  0  0
   -9.0663  -24.0775   33.9667 H   0  0  0  0  0  0  0  0  0  0  0  0
  -10.7247  -23.0028   35.4588 H   0  0  0  0  0  0  0  0  0  0  0  0
  -12.6136  -21.7094   34.5567 H   0  0  0  0  0  0  0  0  0  0  0  0
  -13.0005  -21.6861   32.0979 H   0  0  0  0  0  0  0  0  0  0  0  0
  -13.6895  -27.9578   31.4194 H   0  0  0  0  0  0  0  0  0  0  0  0
  -13.1069  -27.9637   26.7026 H   0  0  0  0  0  0  0  0  0  0  0  0
  -11.9892  -25.9476   25.6870 H   0  0  0  0  0  0  0  0  0  0  0  0
  1  2  1  0
  2  3  1  0
  3  4  1  0
  4  5  1  0
  5  6  1  0
  6  7  2  0
  7  8  1  0
  8  9  2  0
  9 10  1  0
 10 11  2  0
 11 12  1  0
 12 13  2  0
 13 14  1  0
  3 15  1  0
 15 16  2  0
 16 17  1  0
 17 18  1  0
 18 19  2  0
 18 20  1  0
 17 21  2  0
 21 22  1  0
 14  6  1  0
 22 15  1  0
 14  9  1  0
  1 23  1  0
  1 24  1  0
  1 25  1  0
  2 26  1  0
  2 27  1  0
  3 28  1  0
  4 29  1  0
  5 30  1  0
  5 31  1  0
  7 32  1  0
 10 33  1  0
 11 34  1  0
 12 35  1  0
 13 36  1  0
 20 37  1  0
 21 38  1  0
 22 39  1  0
M  END
>  <Energy>  (174) 
53.311118397667158

>  <compound_id>  (174) 
46112

>  <target_id>  (174) 
1

>  <reference_id>  (174) 
52

>  <inspiration_ids>  (174) 
[64, 52]

>  <energy_score>  (174) 
-21.231469669344648

>  <distance_score>  (174) 
2.5808405166470485

>  <path>  (174) 
/opt/xchem-fragalysis-2/maxwin/BulkDock/SCRATCH/511022/C46112-P52/C46112-P52.minimised.mol

>  <scratch_subdir>  (174) 
/opt/xchem-fragalysis-2/maxwin/BulkDock/SCRATCH/511022/C46112-P52

>  <fragmenstein_runtime>  (174) 
5.994115829467773

>  <fragmenstein_outcome>  (174) 
too moved

>  <fragmenstein_mode>  (174) 
expansion

>  <fragmenstein_error>  (174) 


$$$$
C46113-P64
     RDKit          3D

 44 47  0  0  0  0  0  0  0  0999 V2000
  -11.5053  -24.0235   30.2291 O   0  0  0  0  0  0  0  0  0  0  0  0
  -11.1367  -24.3946   31.2644 C   0  0  0  0  0  0  0  0  0  0  0  0
  -10.2850  -25.4903   31.5979 N   0  0  0  0  0  0  0  0  0  0  0  0
   -9.5701  -26.3797   30.7794 C   0  0  0  0  0  0  0  0  0  0  0  0
  -10.0192  -26.2107   29.3254 C   0  0  0  0  0  0  0  0  0  0  0  0
   -9.8216  -25.1151   28.5013 C   0  0  0  0  0  0  0  0  0  0  0  0
  -10.8345  -25.1498   27.5857 N   0  0  0  0  0  0  0  0  0  0  0  0
  -11.3712  -24.1315   26.8106 C   0  0  0  0  0  0  0  0  0  0  0  0
  -12.3914  -24.3867   25.9795 C   0  0  0  0  0  0  0  0  0  0  0  0
  -12.9455  -25.7234   25.9681 C   0  0  0  0  0  0  0  0  0  0  0  0
  -12.4512  -26.6771   26.7772 C   0  0  0  0  0  0  0  0  0  0  0  0
  -11.3541  -26.4196   27.6407 C   0  0  0  0  0  0  0  0  0  0  0  0
  -10.8834  -27.0843   28.6827 N   0  0  0  0  0  0  0  0  0  0  0  0
  -11.3347  -23.8111   32.6035 N   0  0  0  0  0  0  0  0  0  0  0  0
  -11.9554  -22.5709   33.0081 C   0  0  0  0  0  0  0  0  0  0  0  0
  -11.3151  -21.4590   32.1629 C   0  0  0  0  0  0  0  0  0  0  0  0
  -11.9646  -21.5463   30.8290 C   0  0  0  0  0  0  0  0  0  0  0  0
  -13.3640  -22.0472   31.1722 C   0  0  0  0  0  0  0  0  0  0  0  0
  -13.4144  -22.5139   32.6245 C   0  0  0  0  0  0  0  0  0  0  0  0
  -14.2976  -21.6086   33.3566 N   0  0  0  0  0  0  0  0  0  0  0  0
  -14.0273  -20.4348   33.9892 C   0  0  0  0  0  0  0  0  0  0  0  0
  -15.2540  -19.8476   34.2011 C   0  0  0  0  0  0  0  0  0  0  0  0
  -16.2632  -20.6633   33.7765 N   0  0  0  0  0  0  0  0  0  0  0  0
  -15.6629  -21.7457   33.3426 C   0  0  0  0  0  0  0  0  0  0  0  0
  -10.2381  -25.5776   32.5895 H   0  0  0  0  0  0  0  0  0  0  0  0
   -8.6041  -25.9443   31.0079 H   0  0  0  0  0  0  0  0  0  0  0  0
   -9.5897  -27.4095   31.1276 H   0  0  0  0  0  0  0  0  0  0  0  0
   -9.2740  -24.2102   28.6364 H   0  0  0  0  0  0  0  0  0  0  0  0
  -10.9871  -23.1408   26.9731 H   0  0  0  0  0  0  0  0  0  0  0  0
  -12.8578  -23.6024   25.3930 H   0  0  0  0  0  0  0  0  0  0  0  0
  -13.8301  -25.9047   25.3682 H   0  0  0  0  0  0  0  0  0  0  0  0
  -12.9573  -27.6103   26.9028 H   0  0  0  0  0  0  0  0  0  0  0  0
  -10.8157  -24.3382   33.2719 H   0  0  0  0  0  0  0  0  0  0  0  0
  -11.8679  -22.4619   34.0814 H   0  0  0  0  0  0  0  0  0  0  0  0
  -11.4785  -20.4946   32.6374 H   0  0  0  0  0  0  0  0  0  0  0  0
  -10.2515  -21.5876   32.0007 H   0  0  0  0  0  0  0  0  0  0  0  0
  -11.8757  -20.7112   30.1522 H   0  0  0  0  0  0  0  0  0  0  0  0
  -11.3906  -22.1589   30.1582 H   0  0  0  0  0  0  0  0  0  0  0  0
  -13.5180  -22.7419   30.3806 H   0  0  0  0  0  0  0  0  0  0  0  0
  -14.2089  -21.3686   31.0634 H   0  0  0  0  0  0  0  0  0  0  0  0
  -13.8798  -23.4756   32.8288 H   0  0  0  0  0  0  0  0  0  0  0  0
  -13.0278  -20.1099   34.2474 H   0  0  0  0  0  0  0  0  0  0  0  0
  -15.4618  -18.8970   34.6750 H   0  0  0  0  0  0  0  0  0  0  0  0
  -16.1482  -22.6406   32.9786 H   0  0  0  0  0  0  0  0  0  0  0  0
  1  2  2  0
  2  3  1  0
  3  4  1  0
  4  5  1  0
  5  6  2  0
  6  7  1  0
  7  8  1  0
  8  9  2  0
  9 10  1  0
 10 11  2  0
 11 12  1  0
 12 13  2  0
  2 14  1  0
 14 15  1  0
 15 16  1  0
 16 17  1  0
 17 18  1  0
 18 19  1  0
 19 20  1  0
 20 21  1  0
 21 22  2  0
 22 23  1  0
 23 24  2  0
 13  5  1  0
 19 15  1  0
 24 20  1  0
 12  7  1  0
  3 25  1  0
  4 26  1  0
  4 27  1  0
  6 28  1  0
  8 29  1  0
  9 30  1  0
 10 31  1  0
 11 32  1  0
 14 33  1  0
 15 34  1  0
 16 35  1  0
 16 36  1  0
 17 37  1  0
 17 38  1  0
 18 39  1  0
 18 40  1  0
 19 41  1  0
 21 42  1  0
 22 43  1  0
 24 44  1  0
M  END
>  <Energy>  (175) 
30.389581163401058

>  <compound_id>  (175) 
46113

>  <target_id>  (175) 
1

>  <reference_id>  (175) 
64

>  <inspiration_ids>  (175) 
[64, 52]

>  <energy_score>  (175) 
47.14156821262034

>  <distance_score>  (175) 
3.328343039725021

>  <path>  (175) 
/opt/xchem-fragalysis-2/maxwin/BulkDock/SCRATCH/511022/C46113-P64/C46113-P64.minimised.mol

>  <scratch_subdir>  (175) 
/opt/xchem-fragalysis-2/maxwin/BulkDock/SCRATCH/511022/C46113-P64

>  <fragmenstein_runtime>  (175) 
9.947582483291626

>  <fragmenstein_outcome>  (175) 
too moved

>  <fragmenstein_mode>  (175) 
expansion

>  <fragmenstein_error>  (175) 


$$$$
C46113-P52
     RDKit          3D

 44 47  0  0  0  0  0  0  0  0999 V2000
  -10.0786  -23.9016   27.8716 O   0  0  0  0  0  0  0  0  0  0  0  0
  -10.4131  -24.4915   28.7653 C   0  0  0  0  0  0  0  0  0  0  0  0
  -10.8224  -25.9325   28.8816 N   0  0  0  0  0  0  0  0  0  0  0  0
  -10.9880  -26.9049   27.9009 C   0  0  0  0  0  0  0  0  0  0  0  0
  -12.2323  -26.4844   27.2283 C   0  0  0  0  0  0  0  0  0  0  0  0
  -12.4629  -25.3523   26.4698 C   0  0  0  0  0  0  0  0  0  0  0  0
  -13.8023  -25.3461   26.2365 N   0  0  0  0  0  0  0  0  0  0  0  0
  -14.5906  -24.3878   25.6167 C   0  0  0  0  0  0  0  0  0  0  0  0
  -15.9225  -24.5797   25.5650 C   0  0  0  0  0  0  0  0  0  0  0  0
  -16.4845  -25.8193   26.0768 C   0  0  0  0  0  0  0  0  0  0  0  0
  -15.7075  -26.7453   26.6691 C   0  0  0  0  0  0  0  0  0  0  0  0
  -14.3091  -26.5113   26.7982 C   0  0  0  0  0  0  0  0  0  0  0  0
  -13.3787  -27.2058   27.4105 N   0  0  0  0  0  0  0  0  0  0  0  0
  -10.6809  -24.0503   30.1787 N   0  0  0  0  0  0  0  0  0  0  0  0
  -10.6777  -22.7535   30.7537 C   0  0  0  0  0  0  0  0  0  0  0  0
  -10.7644  -21.6923   29.6333 C   0  0  0  0  0  0  0  0  0  0  0  0
  -12.1068  -21.8697   28.9969 C   0  0  0  0  0  0  0  0  0  0  0  0
  -12.9359  -22.5767   30.0552 C   0  0  0  0  0  0  0  0  0  0  0  0
  -12.0821  -22.6605   31.3323 C   0  0  0  0  0  0  0  0  0  0  0  0
  -12.2741  -21.6192   32.2987 N   0  0  0  0  0  0  0  0  0  0  0  0
  -11.4287  -21.3546   33.3339 C   0  0  0  0  0  0  0  0  0  0  0  0
  -12.0850  -20.4042   34.0741 C   0  0  0  0  0  0  0  0  0  0  0  0
  -13.2926  -20.0919   33.5271 N   0  0  0  0  0  0  0  0  0  0  0  0
  -13.4151  -20.9088   32.5122 C   0  0  0  0  0  0  0  0  0  0  0  0
  -11.1415  -26.1157   29.8098 H   0  0  0  0  0  0  0  0  0  0  0  0
  -11.0881  -27.8850   28.3730 H   0  0  0  0  0  0  0  0  0  0  0  0
  -10.1266  -26.7991   27.2412 H   0  0  0  0  0  0  0  0  0  0  0  0
  -11.8118  -24.5515   26.1470 H   0  0  0  0  0  0  0  0  0  0  0  0
  -14.0976  -23.4972   25.2429 H   0  0  0  0  0  0  0  0  0  0  0  0
  -16.6006  -23.8326   25.1648 H   0  0  0  0  0  0  0  0  0  0  0  0
  -17.5551  -25.9720   25.9765 H   0  0  0  0  0  0  0  0  0  0  0  0
  -16.1197  -27.6665   27.0641 H   0  0  0  0  0  0  0  0  0  0  0  0
  -10.8873  -24.8496   30.7467 H   0  0  0  0  0  0  0  0  0  0  0  0
   -9.8742  -22.6857   31.4851 H   0  0  0  0  0  0  0  0  0  0  0  0
  -10.7269  -20.6848   30.0727 H   0  0  0  0  0  0  0  0  0  0  0  0
   -9.9912  -21.7510   28.8615 H   0  0  0  0  0  0  0  0  0  0  0  0
  -12.4149  -20.8614   28.7532 H   0  0  0  0  0  0  0  0  0  0  0  0
  -12.0888  -22.4317   28.0599 H   0  0  0  0  0  0  0  0  0  0  0  0
  -13.1766  -23.5788   29.6810 H   0  0  0  0  0  0  0  0  0  0  0  0
  -13.8705  -22.0804   30.2440 H   0  0  0  0  0  0  0  0  0  0  0  0
  -12.3069  -23.5748   31.8857 H   0  0  0  0  0  0  0  0  0  0  0  0
  -10.4797  -21.8471   33.4855 H   0  0  0  0  0  0  0  0  0  0  0  0
  -11.7639  -19.9244   34.9850 H   0  0  0  0  0  0  0  0  0  0  0  0
  -14.3184  -21.0058   31.9271 H   0  0  0  0  0  0  0  0  0  0  0  0
  1  2  2  0
  2  3  1  0
  3  4  1  0
  4  5  1  0
  5  6  2  0
  6  7  1  0
  7  8  1  0
  8  9  2  0
  9 10  1  0
 10 11  2  0
 11 12  1  0
 12 13  2  0
  2 14  1  0
 14 15  1  0
 15 16  1  0
 16 17  1  0
 17 18  1  0
 18 19  1  0
 19 20  1  0
 20 21  1  0
 21 22  2  0
 22 23  1  0
 23 24  2  0
 13  5  1  0
 19 15  1  0
 24 20  1  0
 12  7  1  0
  3 25  1  0
  4 26  1  0
  4 27  1  0
  6 28  1  0
  8 29  1  0
  9 30  1  0
 10 31  1  0
 11 32  1  0
 14 33  1  0
 15 34  1  0
 16 35  1  0
 16 36  1  0
 17 37  1  0
 17 38  1  0
 18 39  1  0
 18 40  1  0
 19 41  1  0
 21 42  1  0
 22 43  1  0
 24 44  1  0
M  END
>  <Energy>  (176) 
6.3428762741933982

>  <compound_id>  (176) 
46113

>  <target_id>  (176) 
1

>  <reference_id>  (176) 
52

>  <inspiration_ids>  (176) 
[64, 52]

>  <energy_score>  (176) 
9.012030280504916

>  <distance_score>  (176) 
2.5515868444211027

>  <path>  (176) 
/opt/xchem-fragalysis-2/maxwin/BulkDock/SCRATCH/511022/C46113-P52/C46113-P52.minimised.mol

>  <scratch_subdir>  (176) 
/opt/xchem-fragalysis-2/maxwin/BulkDock/SCRATCH/511022/C46113-P52

>  <fragmenstein_runtime>  (176) 
4.330746650695801

>  <fragmenstein_outcome>  (176) 
too moved

>  <fragmenstein_mode>  (176) 
expansion

>  <fragmenstein_error>  (176) 


$$$$
C46114-P64
     RDKit          3D

 47 50  0  0  0  0  0  0  0  0999 V2000
  -11.0424  -24.0195   31.3400 O   0  0  0  0  0  0  0  0  0  0  0  0
  -10.4630  -24.3433   30.3964 C   0  0  0  0  0  0  0  0  0  0  0  0
   -9.7580  -25.4648   30.1392 N   0  0  0  0  0  0  0  0  0  0  0  0
   -9.5901  -26.5888   30.8607 C   0  0  0  0  0  0  0  0  0  0  0  0
   -9.9150  -27.4884   29.7211 C   0  0  0  0  0  0  0  0  0  0  0  0
  -10.8931  -27.2252   28.5291 C   0  0  0  0  0  0  0  0  0  0  0  0
  -10.6876  -26.5526   27.3367 C   0  0  0  0  0  0  0  0  0  0  0  0
  -11.8544  -26.6518   26.6079 N   0  0  0  0  0  0  0  0  0  0  0  0
  -12.2746  -25.9383   25.4911 C   0  0  0  0  0  0  0  0  0  0  0  0
  -13.5970  -25.8483   25.2304 C   0  0  0  0  0  0  0  0  0  0  0  0
  -14.5495  -26.5283   26.0855 C   0  0  0  0  0  0  0  0  0  0  0  0
  -14.1235  -27.3181   27.0840 C   0  0  0  0  0  0  0  0  0  0  0  0
  -12.7168  -27.4048   27.3658 C   0  0  0  0  0  0  0  0  0  0  0  0
  -12.0847  -27.9398   28.3940 N   0  0  0  0  0  0  0  0  0  0  0  0
  -10.3563  -23.7030   29.0803 N   0  0  0  0  0  0  0  0  0  0  0  0
  -10.8510  -22.4678   28.6185 C   0  0  0  0  0  0  0  0  0  0  0  0
  -11.3095  -22.8168   27.2332 C   0  0  0  0  0  0  0  0  0  0  0  0
  -12.5127  -23.6165   27.4796 C   0  0  0  0  0  0  0  0  0  0  0  0
  -12.8302  -23.2747   28.8940 C   0  0  0  0  0  0  0  0  0  0  0  0
  -12.0656  -22.0932   29.4286 C   0  0  0  0  0  0  0  0  0  0  0  0
  -12.2708  -21.9450   30.8699 N   0  0  0  0  0  0  0  0  0  0  0  0
  -11.4391  -21.4386   31.8271 C   0  0  0  0  0  0  0  0  0  0  0  0
  -12.2042  -21.3208   32.9756 C   0  0  0  0  0  0  0  0  0  0  0  0
  -13.4974  -21.6302   32.7548 N   0  0  0  0  0  0  0  0  0  0  0  0
  -13.4897  -22.0574   31.5239 C   0  0  0  0  0  0  0  0  0  0  0  0
   -9.3218  -25.3741   29.2562 H   0  0  0  0  0  0  0  0  0  0  0  0
  -10.2879  -26.5466   31.6919 H   0  0  0  0  0  0  0  0  0  0  0  0
   -8.6111  -26.6860   31.2932 H   0  0  0  0  0  0  0  0  0  0  0  0
  -10.1698  -28.3523   30.2848 H   0  0  0  0  0  0  0  0  0  0  0  0
   -8.9938  -27.6749   29.1883 H   0  0  0  0  0  0  0  0  0  0  0  0
   -9.8684  -25.9539   27.0060 H   0  0  0  0  0  0  0  0  0  0  0  0
  -11.5080  -25.3730   24.9830 H   0  0  0  0  0  0  0  0  0  0  0  0
  -14.0142  -25.2108   24.4599 H   0  0  0  0  0  0  0  0  0  0  0  0
  -15.6097  -26.3963   25.8939 H   0  0  0  0  0  0  0  0  0  0  0  0
  -14.8191  -27.8323   27.7391 H   0  0  0  0  0  0  0  0  0  0  0  0
   -9.8405  -24.2915   28.4673 H   0  0  0  0  0  0  0  0  0  0  0  0
  -10.1152  -21.6910   28.5851 H   0  0  0  0  0  0  0  0  0  0  0  0
  -10.6308  -23.4637   26.6737 H   0  0  0  0  0  0  0  0  0  0  0  0
  -11.5134  -21.9031   26.6990 H   0  0  0  0  0  0  0  0  0  0  0  0
  -12.2748  -24.6558   27.5287 H   0  0  0  0  0  0  0  0  0  0  0  0
  -13.2123  -23.5284   26.6580 H   0  0  0  0  0  0  0  0  0  0  0  0
  -12.5521  -24.1555   29.4409 H   0  0  0  0  0  0  0  0  0  0  0  0
  -13.8333  -23.1800   29.1045 H   0  0  0  0  0  0  0  0  0  0  0  0
  -12.3207  -21.1135   29.0441 H   0  0  0  0  0  0  0  0  0  0  0  0
  -10.4132  -21.2018   31.6296 H   0  0  0  0  0  0  0  0  0  0  0  0
  -11.9452  -20.9251   33.9427 H   0  0  0  0  0  0  0  0  0  0  0  0
  -14.3910  -22.3871   31.0584 H   0  0  0  0  0  0  0  0  0  0  0  0
  1  2  2  0
  2  3  1  0
  3  4  1  0
  4  5  1  0
  5  6  1  0
  6  7  2  0
  7  8  1  0
  8  9  1  0
  9 10  2  0
 10 11  1  0
 11 12  2  0
 12 13  1  0
 13 14  2  0
  2 15  1  0
 15 16  1  0
 16 17  1  0
 17 18  1  0
 18 19  1  0
 19 20  1  0
 20 21  1  0
 21 22  1  0
 22 23  2  0
 23 24  1  0
 24 25  2  0
 14  6  1  0
 20 16  1  0
 25 21  1  0
 13  8  1  0
  3 26  1  0
  4 27  1  0
  4 28  1  0
  5 29  1  0
  5 30  1  0
  7 31  1  0
  9 32  1  0
 10 33  1  0
 11 34  1  0
 12 35  1  0
 15 36  1  0
 16 37  1  0
 17 38  1  0
 17 39  1  0
 18 40  1  0
 18 41  1  0
 19 42  1  0
 19 43  1  0
 20 44  1  0
 22 45  1  0
 23 46  1  0
 25 47  1  0
M  END
>  <Energy>  (177) 
102.57024490828738

>  <compound_id>  (177) 
46114

>  <target_id>  (177) 
1

>  <reference_id>  (177) 
64

>  <inspiration_ids>  (177) 
[64, 52]

>  <energy_score>  (177) 
105.11590737972847

>  <distance_score>  (177) 
1.957287501358537

>  <path>  (177) 
/opt/xchem-fragalysis-2/maxwin/BulkDock/SCRATCH/511022/C46114-P64/C46114-P64.minimised.mol

>  <scratch_subdir>  (177) 
/opt/xchem-fragalysis-2/maxwin/BulkDock/SCRATCH/511022/C46114-P64

>  <fragmenstein_runtime>  (177) 
9.883548498153687

>  <fragmenstein_outcome>  (177) 
too moved

>  <fragmenstein_mode>  (177) 
expansion

>  <fragmenstein_error>  (177) 


$$$$
C46114-P52
     RDKit          3D

 47 50  0  0  0  0  0  0  0  0999 V2000
   -9.9914  -24.9645   29.4603 O   0  0  0  0  0  0  0  0  0  0  0  0
  -10.4451  -24.3298   28.5967 C   0  0  0  0  0  0  0  0  0  0  0  0
  -10.9144  -24.7308   27.2899 N   0  0  0  0  0  0  0  0  0  0  0  0
  -11.0518  -26.0098   26.7143 C   0  0  0  0  0  0  0  0  0  0  0  0
  -12.2090  -26.6984   27.4690 C   0  0  0  0  0  0  0  0  0  0  0  0
  -13.5407  -26.4143   26.8727 C   0  0  0  0  0  0  0  0  0  0  0  0
  -14.0674  -25.2281   26.4082 C   0  0  0  0  0  0  0  0  0  0  0  0
  -15.3551  -25.5138   26.0390 N   0  0  0  0  0  0  0  0  0  0  0  0
  -16.3502  -24.6699   25.5560 C   0  0  0  0  0  0  0  0  0  0  0  0
  -17.5535  -25.1834   25.2485 C   0  0  0  0  0  0  0  0  0  0  0  0
  -17.7751  -26.6106   25.4281 C   0  0  0  0  0  0  0  0  0  0  0  0
  -16.8092  -27.4186   25.9078 C   0  0  0  0  0  0  0  0  0  0  0  0
  -15.5368  -26.8750   26.2444 C   0  0  0  0  0  0  0  0  0  0  0  0
  -14.4545  -27.4330   26.7407 N   0  0  0  0  0  0  0  0  0  0  0  0
  -10.8002  -22.9269   28.5534 N   0  0  0  0  0  0  0  0  0  0  0  0
  -10.7953  -21.9249   29.5825 C   0  0  0  0  0  0  0  0  0  0  0  0
  -12.1981  -21.4052   29.5308 C   0  0  0  0  0  0  0  0  0  0  0  0
  -13.0276  -22.4530   30.2576 C   0  0  0  0  0  0  0  0  0  0  0  0
  -12.0593  -23.3290   31.0383 C   0  0  0  0  0  0  0  0  0  0  0  0
  -10.7420  -22.5636   31.0150 C   0  0  0  0  0  0  0  0  0  0  0  0
  -10.7732  -21.7005   32.1915 N   0  0  0  0  0  0  0  0  0  0  0  0
  -10.9760  -22.1667   33.4659 C   0  0  0  0  0  0  0  0  0  0  0  0
  -11.6438  -21.1435   34.0918 C   0  0  0  0  0  0  0  0  0  0  0  0
  -11.6332  -20.0130   33.3188 N   0  0  0  0  0  0  0  0  0  0  0  0
  -10.9917  -20.3613   32.2307 C   0  0  0  0  0  0  0  0  0  0  0  0
  -11.1659  -23.9177   26.7669 H   0  0  0  0  0  0  0  0  0  0  0  0
  -10.1067  -26.5063   26.9381 H   0  0  0  0  0  0  0  0  0  0  0  0
  -11.2217  -25.8964   25.6426 H   0  0  0  0  0  0  0  0  0  0  0  0
  -12.2379  -26.3939   28.5236 H   0  0  0  0  0  0  0  0  0  0  0  0
  -12.0902  -27.7825   27.5018 H   0  0  0  0  0  0  0  0  0  0  0  0
  -13.6591  -24.2342   26.3277 H   0  0  0  0  0  0  0  0  0  0  0  0
  -16.1146  -23.6192   25.4569 H   0  0  0  0  0  0  0  0  0  0  0  0
  -18.3676  -24.5678   24.8786 H   0  0  0  0  0  0  0  0  0  0  0  0
  -18.7526  -27.0084   25.1697 H   0  0  0  0  0  0  0  0  0  0  0  0
  -16.9752  -28.4802   26.0514 H   0  0  0  0  0  0  0  0  0  0  0  0
  -11.2421  -22.7262   27.6797 H   0  0  0  0  0  0  0  0  0  0  0  0
  -10.1541  -21.1074   29.2668 H   0  0  0  0  0  0  0  0  0  0  0  0
  -12.4869  -21.2921   28.4859 H   0  0  0  0  0  0  0  0  0  0  0  0
  -12.2882  -20.4294   30.0006 H   0  0  0  0  0  0  0  0  0  0  0  0
  -13.5565  -23.0804   29.5390 H   0  0  0  0  0  0  0  0  0  0  0  0
  -13.7491  -21.9691   30.9214 H   0  0  0  0  0  0  0  0  0  0  0  0
  -11.9903  -24.3158   30.5767 H   0  0  0  0  0  0  0  0  0  0  0  0
  -12.4151  -23.5117   32.0476 H   0  0  0  0  0  0  0  0  0  0  0  0
   -9.8832  -23.2273   31.1591 H   0  0  0  0  0  0  0  0  0  0  0  0
  -10.7892  -23.1901   33.7596 H   0  0  0  0  0  0  0  0  0  0  0  0
  -12.0952  -21.1663   35.0710 H   0  0  0  0  0  0  0  0  0  0  0  0
  -10.7235  -19.7025   31.4250 H   0  0  0  0  0  0  0  0  0  0  0  0
  1  2  2  0
  2  3  1  0
  3  4  1  0
  4  5  1  0
  5  6  1  0
  6  7  2  0
  7  8  1  0
  8  9  1  0
  9 10  2  0
 10 11  1  0
 11 12  2  0
 12 13  1  0
 13 14  2  0
  2 15  1  0
 15 16  1  0
 16 17  1  0
 17 18  1  0
 18 19  1  0
 19 20  1  0
 20 21  1  0
 21 22  1  0
 22 23  2  0
 23 24  1  0
 24 25  2  0
 14  6  1  0
 20 16  1  0
 25 21  1  0
 13  8  1  0
  3 26  1  0
  4 27  1  0
  4 28  1  0
  5 29  1  0
  5 30  1  0
  7 31  1  0
  9 32  1  0
 10 33  1  0
 11 34  1  0
 12 35  1  0
 15 36  1  0
 16 37  1  0
 17 38  1  0
 17 39  1  0
 18 40  1  0
 18 41  1  0
 19 42  1  0
 19 43  1  0
 20 44  1  0
 22 45  1  0
 23 46  1  0
 25 47  1  0
M  END
>  <Energy>  (178) 
7.4572917908616345

>  <compound_id>  (178) 
46114

>  <target_id>  (178) 
1

>  <reference_id>  (178) 
52

>  <inspiration_ids>  (178) 
[64, 52]

>  <energy_score>  (178) 
10.002954262297095

>  <distance_score>  (178) 
3.4982009886746432

>  <path>  (178) 
/opt/xchem-fragalysis-2/maxwin/BulkDock/SCRATCH/511022/C46114-P52/C46114-P52.minimised.mol

>  <scratch_subdir>  (178) 
/opt/xchem-fragalysis-2/maxwin/BulkDock/SCRATCH/511022/C46114-P52

>  <fragmenstein_runtime>  (178) 
7.908916473388672

>  <fragmenstein_outcome>  (178) 
too moved

>  <fragmenstein_mode>  (178) 
expansion

>  <fragmenstein_error>  (178) 


$$$$
C46115-P64
     RDKit          3D

 35 38  0  0  0  0  0  0  0  0999 V2000
  -12.5083  -23.0986   24.5550 O   0  0  0  0  0  0  0  0  0  0  0  0
  -12.5316  -24.0302   25.3466 C   0  0  0  0  0  0  0  0  0  0  0  0
  -11.3326  -24.7925   25.7447 C   0  0  0  0  0  0  0  0  0  0  0  0
  -10.8199  -24.8917   26.9774 C   0  0  0  0  0  0  0  0  0  0  0  0
  -11.1368  -24.0678   28.0686 C   0  0  0  0  0  0  0  0  0  0  0  0
  -11.0905  -24.3416   29.4138 C   0  0  0  0  0  0  0  0  0  0  0  0
  -11.4747  -23.2106   30.2019 C   0  0  0  0  0  0  0  0  0  0  0  0
  -11.5684  -23.2125   31.5973 N   0  0  0  0  0  0  0  0  0  0  0  0
  -11.1082  -24.1847   32.4263 C   0  0  0  0  0  0  0  0  0  0  0  0
  -11.8145  -23.9711   33.5768 C   0  0  0  0  0  0  0  0  0  0  0  0
  -12.4302  -22.7531   33.5872 N   0  0  0  0  0  0  0  0  0  0  0  0
  -12.2277  -22.3033   32.3780 C   0  0  0  0  0  0  0  0  0  0  0  0
  -11.6858  -22.0951   29.4508 C   0  0  0  0  0  0  0  0  0  0  0  0
  -11.4463  -22.4346   27.8422 S   0  0  0  0  0  0  0  0  0  0  0  0
  -13.7175  -24.7812   25.7390 C   0  0  0  0  0  0  0  0  0  0  0  0
  -15.0003  -24.5579   25.2778 C   0  0  0  0  0  0  0  0  0  0  0  0
  -15.7755  -25.5323   25.8390 N   0  0  0  0  0  0  0  0  0  0  0  0
  -17.1410  -25.7633   25.6939 C   0  0  0  0  0  0  0  0  0  0  0  0
  -17.7010  -26.8005   26.3385 C   0  0  0  0  0  0  0  0  0  0  0  0
  -16.8616  -27.6417   27.1770 C   0  0  0  0  0  0  0  0  0  0  0  0
  -15.5408  -27.4108   27.3108 C   0  0  0  0  0  0  0  0  0  0  0  0
  -14.9347  -26.3219   26.6190 C   0  0  0  0  0  0  0  0  0  0  0  0
  -13.6930  -25.8956   26.5771 N   0  0  0  0  0  0  0  0  0  0  0  0
  -10.9975  -25.4765   24.9776 H   0  0  0  0  0  0  0  0  0  0  0  0
  -10.0858  -25.6688   27.1681 H   0  0  0  0  0  0  0  0  0  0  0  0
  -10.8298  -25.3161   29.8083 H   0  0  0  0  0  0  0  0  0  0  0  0
  -10.4819  -25.0058   32.1111 H   0  0  0  0  0  0  0  0  0  0  0  0
  -11.8215  -24.6466   34.4097 H   0  0  0  0  0  0  0  0  0  0  0  0
  -12.6082  -21.3785   32.0070 H   0  0  0  0  0  0  0  0  0  0  0  0
  -11.8840  -21.0892   29.7616 H   0  0  0  0  0  0  0  0  0  0  0  0
  -15.3933  -23.7949   24.6234 H   0  0  0  0  0  0  0  0  0  0  0  0
  -17.7007  -25.0855   25.0626 H   0  0  0  0  0  0  0  0  0  0  0  0
  -18.7612  -27.0190   26.2667 H   0  0  0  0  0  0  0  0  0  0  0  0
  -17.3385  -28.4544   27.7174 H   0  0  0  0  0  0  0  0  0  0  0  0
  -14.9268  -28.0243   27.9576 H   0  0  0  0  0  0  0  0  0  0  0  0
  1  2  2  0
  2  3  1  0
  3  4  2  3
  4  5  1  0
  5  6  2  0
  6  7  1  0
  7  8  1  0
  8  9  1  0
  9 10  2  0
 10 11  1  0
 11 12  2  0
  7 13  2  0
 13 14  1  0
  2 15  1  0
 15 16  2  0
 16 17  1  0
 17 18  1  0
 18 19  2  0
 19 20  1  0
 20 21  2  0
 21 22  1  0
 22 23  2  0
 14  5  1  0
 23 15  1  0
 12  8  1  0
 22 17  1  0
  3 24  1  0
  4 25  1  0
  6 26  1  0
  9 27  1  0
 10 28  1  0
 12 29  1  0
 13 30  1  0
 16 31  1  0
 18 32  1  0
 19 33  1  0
 20 34  1  0
 21 35  1  0
M  END
>  <Energy>  (179) 
98.648052287821116

>  <compound_id>  (179) 
46115

>  <target_id>  (179) 
1

>  <reference_id>  (179) 
64

>  <inspiration_ids>  (179) 
[64, 52]

>  <energy_score>  (179) 
-26.548780497136136

>  <distance_score>  (179) 
1.687151467284268

>  <path>  (179) 
/opt/xchem-fragalysis-2/maxwin/BulkDock/SCRATCH/511022/C46115-P64/C46115-P64.minimised.mol

>  <scratch_subdir>  (179) 
/opt/xchem-fragalysis-2/maxwin/BulkDock/SCRATCH/511022/C46115-P64

>  <fragmenstein_runtime>  (179) 
4.328041315078735

>  <fragmenstein_outcome>  (179) 
too moved

>  <fragmenstein_mode>  (179) 
expansion

>  <fragmenstein_error>  (179) 


$$$$
C46115-P52
     RDKit          3D

 35 38  0  0  0  0  0  0  0  0999 V2000
  -13.6155  -23.3208   25.1085 O   0  0  0  0  0  0  0  0  0  0  0  0
  -12.8355  -23.9262   25.8320 C   0  0  0  0  0  0  0  0  0  0  0  0
  -11.3954  -23.6294   25.8990 C   0  0  0  0  0  0  0  0  0  0  0  0
  -10.6658  -23.4476   27.0003 C   0  0  0  0  0  0  0  0  0  0  0  0
  -11.1730  -23.0826   28.2522 C   0  0  0  0  0  0  0  0  0  0  0  0
  -11.0972  -23.6679   29.4969 C   0  0  0  0  0  0  0  0  0  0  0  0
  -11.4983  -22.7488   30.5151 C   0  0  0  0  0  0  0  0  0  0  0  0
  -11.3095  -22.9064   31.9047 N   0  0  0  0  0  0  0  0  0  0  0  0
  -10.4373  -23.7722   32.5101 C   0  0  0  0  0  0  0  0  0  0  0  0
  -10.3815  -23.3672   33.8217 C   0  0  0  0  0  0  0  0  0  0  0  0
  -11.2492  -22.3412   34.0562 N   0  0  0  0  0  0  0  0  0  0  0  0
  -11.8197  -22.1074   32.8995 C   0  0  0  0  0  0  0  0  0  0  0  0
  -11.9749  -21.5707   30.0008 C   0  0  0  0  0  0  0  0  0  0  0  0
  -11.6927  -21.4732   28.3494 S   0  0  0  0  0  0  0  0  0  0  0  0
  -13.1918  -25.1470   26.5563 C   0  0  0  0  0  0  0  0  0  0  0  0
  -14.4502  -25.7206   26.5714 C   0  0  0  0  0  0  0  0  0  0  0  0
  -14.3433  -26.8522   27.3303 N   0  0  0  0  0  0  0  0  0  0  0  0
  -15.3176  -27.7891   27.6643 C   0  0  0  0  0  0  0  0  0  0  0  0
  -14.9813  -28.8347   28.4388 C   0  0  0  0  0  0  0  0  0  0  0  0
  -13.6083  -28.9509   28.9077 C   0  0  0  0  0  0  0  0  0  0  0  0
  -12.6725  -28.0383   28.5799 C   0  0  0  0  0  0  0  0  0  0  0  0
  -13.0201  -26.9336   27.7504 C   0  0  0  0  0  0  0  0  0  0  0  0
  -12.3069  -25.9326   27.2902 N   0  0  0  0  0  0  0  0  0  0  0  0
  -10.8750  -23.5661   24.9560 H   0  0  0  0  0  0  0  0  0  0  0  0
   -9.6059  -23.2797   26.8883 H   0  0  0  0  0  0  0  0  0  0  0  0
  -10.6796  -24.6540   29.6595 H   0  0  0  0  0  0  0  0  0  0  0  0
   -9.8769  -24.5226   31.9730 H   0  0  0  0  0  0  0  0  0  0  0  0
   -9.7543  -23.7671   34.6075 H   0  0  0  0  0  0  0  0  0  0  0  0
  -12.5967  -21.3742   32.7347 H   0  0  0  0  0  0  0  0  0  0  0  0
  -12.3314  -20.7055   30.5334 H   0  0  0  0  0  0  0  0  0  0  0  0
  -15.3798  -25.4112   26.1145 H   0  0  0  0  0  0  0  0  0  0  0  0
  -16.3175  -27.6323   27.2790 H   0  0  0  0  0  0  0  0  0  0  0  0
  -15.7028  -29.5928   28.7268 H   0  0  0  0  0  0  0  0  0  0  0  0
  -13.3594  -29.8023   29.5349 H   0  0  0  0  0  0  0  0  0  0  0  0
  -11.6516  -28.1229   28.9303 H   0  0  0  0  0  0  0  0  0  0  0  0
  1  2  2  0
  2  3  1  0
  3  4  2  3
  4  5  1  0
  5  6  2  0
  6  7  1  0
  7  8  1  0
  8  9  1  0
  9 10  2  0
 10 11  1  0
 11 12  2  0
  7 13  2  0
 13 14  1  0
  2 15  1  0
 15 16  2  0
 16 17  1  0
 17 18  1  0
 18 19  2  0
 19 20  1  0
 20 21  2  0
 21 22  1  0
 22 23  2  0
 14  5  1  0
 23 15  1  0
 12  8  1  0
 22 17  1  0
  3 24  1  0
  4 25  1  0
  6 26  1  0
  9 27  1  0
 10 28  1  0
 12 29  1  0
 13 30  1  0
 16 31  1  0
 18 32  1  0
 19 33  1  0
 20 34  1  0
 21 35  1  0
M  END
>  <Energy>  (180) 
98.013013569532419

>  <compound_id>  (180) 
46115

>  <target_id>  (180) 
1

>  <reference_id>  (180) 
52

>  <inspiration_ids>  (180) 
[64, 52]

>  <energy_score>  (180) 
-27.183819215425473

>  <distance_score>  (180) 
1.4116935580360017

>  <path>  (180) 
/opt/xchem-fragalysis-2/maxwin/BulkDock/SCRATCH/511022/C46115-P52/C46115-P52.minimised.mol

>  <scratch_subdir>  (180) 
/opt/xchem-fragalysis-2/maxwin/BulkDock/SCRATCH/511022/C46115-P52

>  <fragmenstein_runtime>  (180) 
4.078464508056641

>  <fragmenstein_outcome>  (180) 
too moved

>  <fragmenstein_mode>  (180) 
expansion

>  <fragmenstein_error>  (180) 


$$$$
C46117-P64
     RDKit          3D

 40 43  0  0  0  0  0  0  0  0999 V2000
  -12.4701  -20.7938   28.9098 O   0  0  0  0  0  0  0  0  0  0  0  0
  -11.7176  -21.6835   29.0537 C   0  0  0  0  0  0  0  0  0  0  0  0
  -10.9618  -21.4864   30.2374 C   0  0  0  0  0  0  0  0  0  0  0  0
  -11.2669  -22.5982   31.0553 C   0  0  0  0  0  0  0  0  0  0  0  0
  -10.8971  -23.8994   30.8216 C   0  0  0  0  0  0  0  0  0  0  0  0
  -10.9364  -24.2963   32.0703 N   0  0  0  0  0  0  0  0  0  0  0  0
  -10.0088  -25.0416   32.6879 C   0  0  0  0  0  0  0  0  0  0  0  0
  -10.3393  -25.3404   33.9295 C   0  0  0  0  0  0  0  0  0  0  0  0
  -11.7109  -25.2365   34.2855 C   0  0  0  0  0  0  0  0  0  0  0  0
  -12.4801  -24.2501   33.7823 C   0  0  0  0  0  0  0  0  0  0  0  0
  -11.9184  -23.5770   32.7114 C   0  0  0  0  0  0  0  0  0  0  0  0
  -12.0597  -22.4183   32.1459 N   0  0  0  0  0  0  0  0  0  0  0  0
  -11.5507  -22.9062   28.3053 N   0  0  0  0  0  0  0  0  0  0  0  0
  -12.3235  -23.4647   27.2118 N   0  0  0  0  0  0  0  0  0  0  0  0
  -12.4658  -24.3709   26.6255 C   0  0  0  0  0  0  0  0  0  0  0  0
  -11.5036  -25.4212   27.3710 O   0  0  0  0  0  0  0  0  0  0  0  0
  -13.3590  -24.6589   25.5480 C   0  0  0  0  0  0  0  0  0  0  0  0
  -13.6665  -25.9581   25.2021 C   0  0  0  0  0  0  0  0  0  0  0  0
  -14.9794  -25.9290   24.8121 N   0  0  0  0  0  0  0  0  0  0  0  0
  -15.4254  -24.6504   24.9816 C   0  0  0  0  0  0  0  0  0  0  0  0
  -16.9162  -24.2619   25.2080 C   0  0  0  0  0  0  0  0  0  0  0  0
  -17.9577  -24.4559   24.1447 C   0  0  0  0  0  0  0  0  0  0  0  0
  -17.4902  -23.0695   24.4970 C   0  0  0  0  0  0  0  0  0  0  0  0
  -14.4217  -23.8389   25.2113 N   0  0  0  0  0  0  0  0  0  0  0  0
  -11.3393  -20.6890   30.8439 H   0  0  0  0  0  0  0  0  0  0  0  0
  -10.0541  -21.0872   29.9325 H   0  0  0  0  0  0  0  0  0  0  0  0
  -10.3556  -24.4749   30.0846 H   0  0  0  0  0  0  0  0  0  0  0  0
   -9.0298  -25.1008   32.2362 H   0  0  0  0  0  0  0  0  0  0  0  0
   -9.5394  -25.4088   34.6250 H   0  0  0  0  0  0  0  0  0  0  0  0
  -12.1341  -26.0139   34.8974 H   0  0  0  0  0  0  0  0  0  0  0  0
  -13.5324  -24.1146   33.9959 H   0  0  0  0  0  0  0  0  0  0  0  0
  -10.7493  -23.4056   28.6586 H   0  0  0  0  0  0  0  0  0  0  0  0
  -12.5255  -22.5168   27.4836 H   0  0  0  0  0  0  0  0  0  0  0  0
  -13.1336  -26.8713   25.4164 H   0  0  0  0  0  0  0  0  0  0  0  0
  -15.5905  -26.7223   24.6945 H   0  0  0  0  0  0  0  0  0  0  0  0
  -17.2354  -24.4054   26.2368 H   0  0  0  0  0  0  0  0  0  0  0  0
  -17.6758  -24.8909   23.1966 H   0  0  0  0  0  0  0  0  0  0  0  0
  -18.9562  -24.7390   24.4634 H   0  0  0  0  0  0  0  0  0  0  0  0
  -18.1545  -22.4256   25.0657 H   0  0  0  0  0  0  0  0  0  0  0  0
  -16.8426  -22.5172   23.8297 H   0  0  0  0  0  0  0  0  0  0  0  0
  1  2  2  0
  2  3  1  0
  3  4  1  0
  4  5  2  0
  5  6  1  0
  6  7  1  0
  7  8  2  0
  8  9  1  0
  9 10  2  0
 10 11  1  0
 11 12  2  0
  2 13  1  0
 13 14  1  0
 14 15  1  0
 15 16  2  0
 15 17  1  0
 17 18  2  0
 18 19  1  0
 19 20  1  0
 20 21  1  0
 21 22  1  0
 22 23  1  0
 20 24  2  0
 12  4  1  0
 24 17  1  0
 11  6  1  0
 23 21  1  0
  3 25  1  0
  3 26  1  0
  5 27  1  0
  7 28  1  0
  8 29  1  0
  9 30  1  0
 10 31  1  0
 13 32  1  0
 14 33  1  0
 18 34  1  0
 19 35  1  0
 21 36  1  0
 22 37  1  0
 22 38  1  0
 23 39  1  0
 23 40  1  0
M  END
>  <Energy>  (181) 
439.30976817936346

>  <compound_id>  (181) 
46117

>  <target_id>  (181) 
1

>  <reference_id>  (181) 
64

>  <inspiration_ids>  (181) 
[64, 52]

>  <energy_score>  (181) 
281.6593275017879

>  <distance_score>  (181) 
3.1496296084048314

>  <path>  (181) 
/opt/xchem-fragalysis-2/maxwin/BulkDock/SCRATCH/511022/C46117-P64/C46117-P64.minimised.mol

>  <scratch_subdir>  (181) 
/opt/xchem-fragalysis-2/maxwin/BulkDock/SCRATCH/511022/C46117-P64

>  <fragmenstein_runtime>  (181) 
9.148937463760376

>  <fragmenstein_outcome>  (181) 
too moved

>  <fragmenstein_mode>  (181) 
expansion

>  <fragmenstein_error>  (181) 


$$$$
C46117-P52
     RDKit          3D

 40 43  0  0  0  0  0  0  0  0999 V2000
   -9.8624  -23.7958   28.0575 O   0  0  0  0  0  0  0  0  0  0  0  0
  -10.0935  -24.6075   28.9063 C   0  0  0  0  0  0  0  0  0  0  0  0
   -9.4312  -24.4703   30.2641 C   0  0  0  0  0  0  0  0  0  0  0  0
  -10.2788  -23.6854   31.1799 C   0  0  0  0  0  0  0  0  0  0  0  0
  -10.1749  -23.5567   32.5468 C   0  0  0  0  0  0  0  0  0  0  0  0
  -11.2011  -22.7264   32.9066 N   0  0  0  0  0  0  0  0  0  0  0  0
  -11.6405  -22.3622   34.1661 C   0  0  0  0  0  0  0  0  0  0  0  0
  -12.7242  -21.5795   34.2615 C   0  0  0  0  0  0  0  0  0  0  0  0
  -13.3557  -21.0692   33.0653 C   0  0  0  0  0  0  0  0  0  0  0  0
  -12.9371  -21.4571   31.8499 C   0  0  0  0  0  0  0  0  0  0  0  0
  -11.8388  -22.3410   31.7377 C   0  0  0  0  0  0  0  0  0  0  0  0
  -11.3235  -22.9404   30.6950 N   0  0  0  0  0  0  0  0  0  0  0  0
  -10.9684  -25.7479   28.9010 N   0  0  0  0  0  0  0  0  0  0  0  0
  -11.8369  -26.1766   27.9842 N   0  0  0  0  0  0  0  0  0  0  0  0
  -12.7804  -27.2478   28.0148 C   0  0  0  0  0  0  0  0  0  0  0  0
  -12.9822  -28.0893   28.8400 O   0  0  0  0  0  0  0  0  0  0  0  0
  -13.5955  -27.0695   26.8062 C   0  0  0  0  0  0  0  0  0  0  0  0
  -14.9342  -27.3403   26.6207 C   0  0  0  0  0  0  0  0  0  0  0  0
  -15.3399  -26.4103   25.6805 N   0  0  0  0  0  0  0  0  0  0  0  0
  -14.2627  -25.5807   25.4650 C   0  0  0  0  0  0  0  0  0  0  0  0
  -14.3428  -24.0314   25.4625 C   0  0  0  0  0  0  0  0  0  0  0  0
  -12.9898  -23.3343   25.6650 C   0  0  0  0  0  0  0  0  0  0  0  0
  -13.8459  -23.0308   24.4818 C   0  0  0  0  0  0  0  0  0  0  0  0
  -13.1623  -26.1843   25.8355 N   0  0  0  0  0  0  0  0  0  0  0  0
   -8.4755  -23.9635   30.1205 H   0  0  0  0  0  0  0  0  0  0  0  0
   -9.2242  -25.4515   30.6935 H   0  0  0  0  0  0  0  0  0  0  0  0
   -9.4867  -23.9761   33.2675 H   0  0  0  0  0  0  0  0  0  0  0  0
  -11.1493  -22.7946   35.0255 H   0  0  0  0  0  0  0  0  0  0  0  0
  -13.2104  -21.4007   35.2022 H   0  0  0  0  0  0  0  0  0  0  0  0
  -14.2341  -20.4441   33.1816 H   0  0  0  0  0  0  0  0  0  0  0  0
  -13.4497  -21.1545   30.9508 H   0  0  0  0  0  0  0  0  0  0  0  0
  -10.9758  -26.1644   29.8272 H   0  0  0  0  0  0  0  0  0  0  0  0
  -11.8962  -25.7038   27.0735 H   0  0  0  0  0  0  0  0  0  0  0  0
  -15.6467  -27.9275   27.1830 H   0  0  0  0  0  0  0  0  0  0  0  0
  -16.3015  -26.1616   25.4984 H   0  0  0  0  0  0  0  0  0  0  0  0
  -15.2315  -23.7017   25.9785 H   0  0  0  0  0  0  0  0  0  0  0  0
  -12.8148  -22.5388   26.3747 H   0  0  0  0  0  0  0  0  0  0  0  0
  -12.0697  -23.8927   25.5348 H   0  0  0  0  0  0  0  0  0  0  0  0
  -13.5161  -23.2892   23.4961 H   0  0  0  0  0  0  0  0  0  0  0  0
  -14.3627  -22.0804   24.4605 H   0  0  0  0  0  0  0  0  0  0  0  0
  1  2  2  0
  2  3  1  0
  3  4  1  0
  4  5  2  0
  5  6  1  0
  6  7  1  0
  7  8  2  0
  8  9  1  0
  9 10  2  0
 10 11  1  0
 11 12  2  0
  2 13  1  0
 13 14  1  0
 14 15  1  0
 15 16  2  0
 15 17  1  0
 17 18  2  0
 18 19  1  0
 19 20  1  0
 20 21  1  0
 21 22  1  0
 22 23  1  0
 20 24  2  0
 12  4  1  0
 24 17  1  0
 11  6  1  0
 23 21  1  0
  3 25  1  0
  3 26  1  0
  5 27  1  0
  7 28  1  0
  8 29  1  0
  9 30  1  0
 10 31  1  0
 13 32  1  0
 14 33  1  0
 18 34  1  0
 19 35  1  0
 21 36  1  0
 22 37  1  0
 22 38  1  0
 23 39  1  0
 23 40  1  0
M  END
>  <Energy>  (182) 
154.9762989293263

>  <compound_id>  (182) 
46117

>  <target_id>  (182) 
1

>  <reference_id>  (182) 
52

>  <inspiration_ids>  (182) 
[64, 52]

>  <energy_score>  (182) 
-2.6741417482531347

>  <distance_score>  (182) 
3.6439589615033574

>  <path>  (182) 
/opt/xchem-fragalysis-2/maxwin/BulkDock/SCRATCH/511022/C46117-P52/C46117-P52.minimised.mol

>  <scratch_subdir>  (182) 
/opt/xchem-fragalysis-2/maxwin/BulkDock/SCRATCH/511022/C46117-P52

>  <fragmenstein_runtime>  (182) 
11.161213636398315

>  <fragmenstein_outcome>  (182) 
too moved

>  <fragmenstein_mode>  (182) 
expansion

>  <fragmenstein_error>  (182) 


$$$$
C46118-P64
     RDKit          3D

 33 35  0  0  0  0  0  0  0  0999 V2000
  -15.2064  -24.2494   33.9538 C   0  0  0  0  0  0  0  0  0  0  0  0
  -14.3243  -23.1500   33.6700 N   0  0  0  0  0  0  0  0  0  0  0  0
  -14.7259  -21.9210   33.2506 C   0  0  0  0  0  0  0  0  0  0  0  0
  -13.7493  -21.3071   32.6308 N   0  0  0  0  0  0  0  0  0  0  0  0
  -12.6571  -22.1650   32.6869 C   0  0  0  0  0  0  0  0  0  0  0  0
  -11.6197  -22.2115   31.6230 C   0  0  0  0  0  0  0  0  0  0  0  0
  -10.9109  -21.2871   31.3634 O   0  0  0  0  0  0  0  0  0  0  0  0
  -11.7590  -23.4847   30.9967 N   0  0  0  0  0  0  0  0  0  0  0  0
  -11.2049  -23.9857   29.8822 N   0  0  0  0  0  0  0  0  0  0  0  0
  -11.1202  -23.4549   28.5590 C   0  0  0  0  0  0  0  0  0  0  0  0
  -11.4487  -22.3920   28.1214 O   0  0  0  0  0  0  0  0  0  0  0  0
  -10.6019  -24.5346   27.6009 C   0  0  0  0  0  0  0  0  0  0  0  0
  -11.7734  -24.9321   26.7678 C   0  0  0  0  0  0  0  0  0  0  0  0
  -12.3507  -24.1959   25.7430 C   0  0  0  0  0  0  0  0  0  0  0  0
  -13.5806  -24.7437   25.5821 N   0  0  0  0  0  0  0  0  0  0  0  0
  -14.7306  -24.4319   24.8995 C   0  0  0  0  0  0  0  0  0  0  0  0
  -15.7207  -25.2950   25.1833 C   0  0  0  0  0  0  0  0  0  0  0  0
  -15.2320  -26.5403   26.3493 S   0  0  0  0  0  0  0  0  0  0  0  0
  -13.6423  -25.8373   26.3835 C   0  0  0  0  0  0  0  0  0  0  0  0
  -12.5724  -26.0149   27.1107 N   0  0  0  0  0  0  0  0  0  0  0  0
  -12.9646  -23.2188   33.5305 C   0  0  0  0  0  0  0  0  0  0  0  0
  -15.9456  -23.9303   34.6907 H   0  0  0  0  0  0  0  0  0  0  0  0
  -15.7265  -24.5257   33.0328 H   0  0  0  0  0  0  0  0  0  0  0  0
  -14.6407  -25.1049   34.3260 H   0  0  0  0  0  0  0  0  0  0  0  0
  -15.7388  -21.5589   33.3600 H   0  0  0  0  0  0  0  0  0  0  0  0
  -12.5251  -23.9916   31.4401 H   0  0  0  0  0  0  0  0  0  0  0  0
  -10.9058  -24.9568   29.8697 H   0  0  0  0  0  0  0  0  0  0  0  0
  -10.1823  -25.4029   28.1169 H   0  0  0  0  0  0  0  0  0  0  0  0
   -9.8112  -24.1104   26.9897 H   0  0  0  0  0  0  0  0  0  0  0  0
  -12.0688  -23.2676   25.2673 H   0  0  0  0  0  0  0  0  0  0  0  0
  -14.7602  -23.5599   24.2658 H   0  0  0  0  0  0  0  0  0  0  0  0
  -16.7290  -25.2514   24.7944 H   0  0  0  0  0  0  0  0  0  0  0  0
  -12.4157  -24.1166   33.7756 H   0  0  0  0  0  0  0  0  0  0  0  0
  1  2  1  0
  2  3  1  0
  3  4  2  0
  4  5  1  0
  5  6  1  0
  6  7  2  0
  6  8  1  0
  8  9  1  0
  9 10  1  0
 10 11  2  0
 10 12  1  0
 12 13  1  0
 13 14  2  0
 14 15  1  0
 15 16  1  0
 16 17  2  0
 17 18  1  0
 18 19  1  0
 19 20  2  0
  5 21  2  0
 21  2  1  0
 20 13  1  0
 19 15  1  0
  1 22  1  0
  1 23  1  0
  1 24  1  0
  3 25  1  0
  8 26  1  0
  9 27  1  0
 12 28  1  0
 12 29  1  0
 14 30  1  0
 16 31  1  0
 17 32  1  0
 21 33  1  0
M  END
>  <Energy>  (183) 
155.17945142463032

>  <compound_id>  (183) 
46118

>  <target_id>  (183) 
1

>  <reference_id>  (183) 
64

>  <inspiration_ids>  (183) 
[64, 52]

>  <energy_score>  (183) 
-12.645071768741218

>  <distance_score>  (183) 
3.739895179461206

>  <path>  (183) 
/opt/xchem-fragalysis-2/maxwin/BulkDock/SCRATCH/511022/C46118-P64/C46118-P64.minimised.mol

>  <scratch_subdir>  (183) 
/opt/xchem-fragalysis-2/maxwin/BulkDock/SCRATCH/511022/C46118-P64

>  <fragmenstein_runtime>  (183) 
7.679795026779175

>  <fragmenstein_outcome>  (183) 
too moved

>  <fragmenstein_mode>  (183) 
expansion

>  <fragmenstein_error>  (183) 


$$$$
C46118-P52
     RDKit          3D

 33 35  0  0  0  0  0  0  0  0999 V2000
  -11.6308  -21.2305   30.9472 C   0  0  0  0  0  0  0  0  0  0  0  0
  -11.1295  -21.9310   32.1033 N   0  0  0  0  0  0  0  0  0  0  0  0
  -11.7701  -22.0937   33.2925 C   0  0  0  0  0  0  0  0  0  0  0  0
  -11.3393  -23.1800   33.9034 N   0  0  0  0  0  0  0  0  0  0  0  0
  -10.3834  -23.7327   33.0784 C   0  0  0  0  0  0  0  0  0  0  0  0
  -10.2770  -25.1632   32.7113 C   0  0  0  0  0  0  0  0  0  0  0  0
   -9.6267  -25.9804   33.2338 O   0  0  0  0  0  0  0  0  0  0  0  0
  -11.1526  -25.2406   31.4276 N   0  0  0  0  0  0  0  0  0  0  0  0
  -11.3133  -26.2214   30.5561 N   0  0  0  0  0  0  0  0  0  0  0  0
  -12.5240  -27.1603   30.3080 C   0  0  0  0  0  0  0  0  0  0  0  0
  -13.5325  -27.2618   30.8855 O   0  0  0  0  0  0  0  0  0  0  0  0
  -12.1720  -27.9057   29.0228 C   0  0  0  0  0  0  0  0  0  0  0  0
  -12.2599  -26.8705   27.9293 C   0  0  0  0  0  0  0  0  0  0  0  0
  -11.4315  -25.7864   27.6140 C   0  0  0  0  0  0  0  0  0  0  0  0
  -12.1778  -25.0306   26.7605 N   0  0  0  0  0  0  0  0  0  0  0  0
  -12.0991  -23.7909   26.1765 C   0  0  0  0  0  0  0  0  0  0  0  0
  -13.2066  -23.5180   25.4634 C   0  0  0  0  0  0  0  0  0  0  0  0
  -14.3996  -24.8320   25.5049 S   0  0  0  0  0  0  0  0  0  0  0  0
  -13.3159  -25.7257   26.5119 C   0  0  0  0  0  0  0  0  0  0  0  0
  -13.4048  -26.8454   27.1639 N   0  0  0  0  0  0  0  0  0  0  0  0
  -10.0910  -22.8172   32.0822 C   0  0  0  0  0  0  0  0  0  0  0  0
  -12.7096  -21.0956   31.0531 H   0  0  0  0  0  0  0  0  0  0  0  0
  -11.1216  -20.2674   30.8928 H   0  0  0  0  0  0  0  0  0  0  0  0
  -11.4265  -21.8194   30.0489 H   0  0  0  0  0  0  0  0  0  0  0  0
  -12.5861  -21.4693   33.6372 H   0  0  0  0  0  0  0  0  0  0  0  0
  -11.5179  -24.3208   31.2105 H   0  0  0  0  0  0  0  0  0  0  0  0
  -10.5672  -26.4543   29.9137 H   0  0  0  0  0  0  0  0  0  0  0  0
  -11.1906  -28.3741   29.0707 H   0  0  0  0  0  0  0  0  0  0  0  0
  -12.9100  -28.6993   28.8637 H   0  0  0  0  0  0  0  0  0  0  0  0
  -10.4712  -25.4512   27.9758 H   0  0  0  0  0  0  0  0  0  0  0  0
  -11.2346  -23.1594   26.3057 H   0  0  0  0  0  0  0  0  0  0  0  0
  -13.3826  -22.6138   24.8930 H   0  0  0  0  0  0  0  0  0  0  0  0
   -9.4940  -23.0019   31.2049 H   0  0  0  0  0  0  0  0  0  0  0  0
  1  2  1  0
  2  3  1  0
  3  4  2  0
  4  5  1  0
  5  6  1  0
  6  7  2  0
  6  8  1  0
  8  9  1  0
  9 10  1  0
 10 11  2  0
 10 12  1  0
 12 13  1  0
 13 14  2  0
 14 15  1  0
 15 16  1  0
 16 17  2  0
 17 18  1  0
 18 19  1  0
 19 20  2  0
  5 21  2  0
 21  2  1  0
 20 13  1  0
 19 15  1  0
  1 22  1  0
  1 23  1  0
  1 24  1  0
  3 25  1  0
  8 26  1  0
  9 27  1  0
 12 28  1  0
 12 29  1  0
 14 30  1  0
 16 31  1  0
 17 32  1  0
 21 33  1  0
M  END
>  <Energy>  (184) 
193.07218069552252

>  <compound_id>  (184) 
46118

>  <target_id>  (184) 
1

>  <reference_id>  (184) 
52

>  <inspiration_ids>  (184) 
[64, 52]

>  <energy_score>  (184) 
36.81788062265332

>  <distance_score>  (184) 
2.611425783267153

>  <path>  (184) 
/opt/xchem-fragalysis-2/maxwin/BulkDock/SCRATCH/511022/C46118-P52/C46118-P52.minimised.mol

>  <scratch_subdir>  (184) 
/opt/xchem-fragalysis-2/maxwin/BulkDock/SCRATCH/511022/C46118-P52

>  <fragmenstein_runtime>  (184) 
6.060855150222778

>  <fragmenstein_outcome>  (184) 
too moved

>  <fragmenstein_mode>  (184) 
expansion

>  <fragmenstein_error>  (184) 


$$$$
C46119-P64
     RDKit          3D

 26 28  0  0  0  0  0  0  0  0999 V2000
  -11.8423  -27.2394   27.0020 O   0  0  0  0  0  0  0  0  0  0  0  0
  -11.6502  -26.3441   25.9066 C   0  0  0  0  0  0  0  0  0  0  0  0
  -11.4960  -24.9760   26.3802 C   0  0  0  0  0  0  0  0  0  0  0  0
  -12.0464  -23.8127   25.9153 C   0  0  0  0  0  0  0  0  0  0  0  0
  -11.7947  -22.9278   26.9203 N   0  0  0  0  0  0  0  0  0  0  0  0
  -11.3001  -23.6285   27.9495 C   0  0  0  0  0  0  0  0  0  0  0  0
  -11.3694  -23.3112   29.4223 C   0  0  0  0  0  0  0  0  0  0  0  0
  -10.8084  -24.2558   30.2355 C   0  0  0  0  0  0  0  0  0  0  0  0
  -11.0909  -23.8368   31.4750 N   0  0  0  0  0  0  0  0  0  0  0  0
  -10.8830  -24.5728   32.6090 C   0  0  0  0  0  0  0  0  0  0  0  0
  -11.6447  -24.2881   33.6589 C   0  0  0  0  0  0  0  0  0  0  0  0
  -12.5125  -23.1357   33.6021 C   0  0  0  0  0  0  0  0  0  0  0  0
  -12.5363  -22.2982   32.5542 C   0  0  0  0  0  0  0  0  0  0  0  0
  -11.8456  -22.6722   31.3736 C   0  0  0  0  0  0  0  0  0  0  0  0
  -11.9385  -22.2670   30.1171 N   0  0  0  0  0  0  0  0  0  0  0  0
  -10.8128  -24.7664   27.5272 N   0  0  0  0  0  0  0  0  0  0  0  0
  -11.9720  -28.1001   26.5579 H   0  0  0  0  0  0  0  0  0  0  0  0
  -12.5254  -26.4260   25.2538 H   0  0  0  0  0  0  0  0  0  0  0  0
  -10.7775  -26.6792   25.3449 H   0  0  0  0  0  0  0  0  0  0  0  0
  -12.6392  -23.5426   25.0550 H   0  0  0  0  0  0  0  0  0  0  0  0
  -12.1051  -21.9714   26.9403 H   0  0  0  0  0  0  0  0  0  0  0  0
  -10.3150  -25.1943   30.0203 H   0  0  0  0  0  0  0  0  0  0  0  0
  -10.2521  -25.4470   32.5433 H   0  0  0  0  0  0  0  0  0  0  0  0
  -11.6173  -24.9397   34.5157 H   0  0  0  0  0  0  0  0  0  0  0  0
  -13.2227  -23.0227   34.3972 H   0  0  0  0  0  0  0  0  0  0  0  0
  -13.2454  -21.4874   32.5234 H   0  0  0  0  0  0  0  0  0  0  0  0
  1  2  1  0
  2  3  1  0
  3  4  2  0
  4  5  1  0
  5  6  1  0
  6  7  1  0
  7  8  2  0
  8  9  1  0
  9 10  1  0
 10 11  2  0
 11 12  1  0
 12 13  2  0
 13 14  1  0
 14 15  2  0
  6 16  2  0
 16  3  1  0
 15  7  1  0
 14  9  1  0
  1 17  1  0
  2 18  1  0
  2 19  1  0
  4 20  1  0
  5 21  1  0
  8 22  1  0
 10 23  1  0
 11 24  1  0
 12 25  1  0
 13 26  1  0
M  END
>  <Energy>  (185) 
66.726753791908692

>  <compound_id>  (185) 
46119

>  <target_id>  (185) 
1

>  <reference_id>  (185) 
64

>  <inspiration_ids>  (185) 
[64, 52]

>  <energy_score>  (185) 
-0.3875502271736053

>  <distance_score>  (185) 
2.5093309894882236

>  <path>  (185) 
/opt/xchem-fragalysis-2/maxwin/BulkDock/SCRATCH/511022/C46119-P64/C46119-P64.minimised.mol

>  <scratch_subdir>  (185) 
/opt/xchem-fragalysis-2/maxwin/BulkDock/SCRATCH/511022/C46119-P64

>  <fragmenstein_runtime>  (185) 
6.045740127563477

>  <fragmenstein_outcome>  (185) 
too moved

>  <fragmenstein_mode>  (185) 
expansion

>  <fragmenstein_error>  (185) 


$$$$
C46119-P52
     RDKit          3D

 26 28  0  0  0  0  0  0  0  0999 V2000
  -10.5065  -26.1240   26.8677 O   0  0  0  0  0  0  0  0  0  0  0  0
  -11.1525  -25.0913   26.1391 C   0  0  0  0  0  0  0  0  0  0  0  0
  -11.6971  -24.1595   27.0969 C   0  0  0  0  0  0  0  0  0  0  0  0
  -12.9963  -24.1268   27.5228 C   0  0  0  0  0  0  0  0  0  0  0  0
  -12.9502  -23.3171   28.6009 N   0  0  0  0  0  0  0  0  0  0  0  0
  -11.6587  -23.0156   28.8279 C   0  0  0  0  0  0  0  0  0  0  0  0
  -11.3019  -22.6528   30.2329 C   0  0  0  0  0  0  0  0  0  0  0  0
  -10.2325  -23.2588   30.8206 C   0  0  0  0  0  0  0  0  0  0  0  0
  -10.4552  -23.0655   32.1363 N   0  0  0  0  0  0  0  0  0  0  0  0
   -9.7402  -23.5851   33.1912 C   0  0  0  0  0  0  0  0  0  0  0  0
  -10.1582  -23.3100   34.4280 C   0  0  0  0  0  0  0  0  0  0  0  0
  -11.2913  -22.4282   34.6003 C   0  0  0  0  0  0  0  0  0  0  0  0
  -11.9964  -21.9482   33.5711 C   0  0  0  0  0  0  0  0  0  0  0  0
  -11.6038  -22.2914   32.2648 C   0  0  0  0  0  0  0  0  0  0  0  0
  -12.1654  -22.0634   31.1068 N   0  0  0  0  0  0  0  0  0  0  0  0
  -10.8621  -23.4417   27.8934 N   0  0  0  0  0  0  0  0  0  0  0  0
  -10.5691  -26.8750   26.2499 H   0  0  0  0  0  0  0  0  0  0  0  0
  -11.9496  -25.5442   25.5411 H   0  0  0  0  0  0  0  0  0  0  0  0
  -10.4539  -24.5920   25.4703 H   0  0  0  0  0  0  0  0  0  0  0  0
  -13.8829  -24.6568   27.2037 H   0  0  0  0  0  0  0  0  0  0  0  0
  -13.6498  -23.1839   29.3135 H   0  0  0  0  0  0  0  0  0  0  0  0
   -9.4386  -23.8781   30.4259 H   0  0  0  0  0  0  0  0  0  0  0  0
   -8.8818  -24.2057   32.9674 H   0  0  0  0  0  0  0  0  0  0  0  0
   -9.6457  -23.7013   35.2909 H   0  0  0  0  0  0  0  0  0  0  0  0
  -11.5491  -22.0953   35.5873 H   0  0  0  0  0  0  0  0  0  0  0  0
  -12.8512  -21.2981   33.7161 H   0  0  0  0  0  0  0  0  0  0  0  0
  1  2  1  0
  2  3  1  0
  3  4  2  0
  4  5  1  0
  5  6  1  0
  6  7  1  0
  7  8  2  0
  8  9  1  0
  9 10  1  0
 10 11  2  0
 11 12  1  0
 12 13  2  0
 13 14  1  0
 14 15  2  0
  6 16  2  0
 16  3  1  0
 15  7  1  0
 14  9  1  0
  1 17  1  0
  2 18  1  0
  2 19  1  0
  4 20  1  0
  5 21  1  0
  8 22  1  0
 10 23  1  0
 11 24  1  0
 12 25  1  0
 13 26  1  0
M  END
>  <Energy>  (186) 
63.974249019601501

>  <compound_id>  (186) 
46119

>  <target_id>  (186) 
1

>  <reference_id>  (186) 
52

>  <inspiration_ids>  (186) 
[64, 52]

>  <energy_score>  (186) 
-3.140054999479247

>  <distance_score>  (186) 
2.409517484059299

>  <path>  (186) 
/opt/xchem-fragalysis-2/maxwin/BulkDock/SCRATCH/511022/C46119-P52/C46119-P52.minimised.mol

>  <scratch_subdir>  (186) 
/opt/xchem-fragalysis-2/maxwin/BulkDock/SCRATCH/511022/C46119-P52

>  <fragmenstein_runtime>  (186) 
5.620384693145752

>  <fragmenstein_outcome>  (186) 
too moved

>  <fragmenstein_mode>  (186) 
expansion

>  <fragmenstein_error>  (186) 


$$$$
C46120-P64
     RDKit          3D

 37 39  0  0  0  0  0  0  0  0999 V2000
   -9.3924  -26.2624   28.2836 O   0  0  0  0  0  0  0  0  0  0  0  0
  -10.2595  -25.5600   28.6025 C   0  0  0  0  0  0  0  0  0  0  0  0
  -10.5909  -24.9490   29.9658 N   0  0  0  0  0  0  0  0  0  0  0  0
   -9.9880  -25.1452   31.2340 C   0  0  0  0  0  0  0  0  0  0  0  0
  -10.3771  -24.4132   32.5206 C   0  0  0  0  0  0  0  0  0  0  0  0
  -10.7039  -25.4222   33.6293 C   0  0  0  0  0  0  0  0  0  0  0  0
   -9.7410  -25.3363   34.6679 O   0  0  0  0  0  0  0  0  0  0  0  0
  -11.3683  -23.4077   32.7425 N   0  0  0  0  0  0  0  0  0  0  0  0
  -12.1989  -22.6137   31.7644 C   0  0  0  0  0  0  0  0  0  0  0  0
  -12.1708  -22.5809   30.6058 O   0  0  0  0  0  0  0  0  0  0  0  0
  -13.0603  -21.8487   32.6176 C   0  0  0  0  0  0  0  0  0  0  0  0
  -12.6997  -20.8642   33.5299 C   0  0  0  0  0  0  0  0  0  0  0  0
  -13.7891  -20.2239   34.0726 N   0  0  0  0  0  0  0  0  0  0  0  0
  -14.7780  -20.8793   33.5494 C   0  0  0  0  0  0  0  0  0  0  0  0
  -16.4902  -20.8057   33.7997 S   0  0  0  0  0  0  0  0  0  0  0  0
  -16.5753  -22.4313   33.1524 C   0  0  0  0  0  0  0  0  0  0  0  0
  -15.4002  -22.8952   32.7058 C   0  0  0  0  0  0  0  0  0  0  0  0
  -14.3921  -21.9874   32.8554 N   0  0  0  0  0  0  0  0  0  0  0  0
  -11.2472  -25.2726   27.6133 C   0  0  0  0  0  0  0  0  0  0  0  0
  -12.1584  -24.2691   27.4345 C   0  0  0  0  0  0  0  0  0  0  0  0
  -13.0236  -24.5937   26.4202 N   0  0  0  0  0  0  0  0  0  0  0  0
  -12.5839  -25.7174   25.9138 C   0  0  0  0  0  0  0  0  0  0  0  0
  -11.4681  -26.1281   26.5593 N   0  0  0  0  0  0  0  0  0  0  0  0
  -11.3791  -24.3116   29.8698 H   0  0  0  0  0  0  0  0  0  0  0  0
   -8.9203  -24.9874   31.0760 H   0  0  0  0  0  0  0  0  0  0  0  0
  -10.0185  -26.2292   31.3709 H   0  0  0  0  0  0  0  0  0  0  0  0
   -9.4581  -23.8891   32.8067 H   0  0  0  0  0  0  0  0  0  0  0  0
  -10.7147  -26.4264   33.2564 H   0  0  0  0  0  0  0  0  0  0  0  0
  -11.6779  -25.2693   34.0996 H   0  0  0  0  0  0  0  0  0  0  0  0
   -8.9020  -25.5411   34.1960 H   0  0  0  0  0  0  0  0  0  0  0  0
  -11.7179  -23.2543   33.6854 H   0  0  0  0  0  0  0  0  0  0  0  0
  -11.7279  -20.4438   33.7038 H   0  0  0  0  0  0  0  0  0  0  0  0
  -17.4925  -23.0055   33.2004 H   0  0  0  0  0  0  0  0  0  0  0  0
  -15.2616  -23.9026   32.3773 H   0  0  0  0  0  0  0  0  0  0  0  0
  -12.2809  -23.3591   28.0066 H   0  0  0  0  0  0  0  0  0  0  0  0
  -13.0213  -26.2683   25.0926 H   0  0  0  0  0  0  0  0  0  0  0  0
  -10.9422  -26.9733   26.3764 H   0  0  0  0  0  0  0  0  0  0  0  0
  1  2  2  0
  2  3  1  0
  3  4  1  0
  4  5  1  0
  5  6  1  0
  6  7  1  0
  5  8  1  0
  8  9  1  0
  9 10  2  0
  9 11  1  0
 11 12  2  0
 12 13  1  0
 13 14  2  0
 14 15  1  0
 15 16  1  0
 16 17  2  0
 17 18  1  0
  2 19  1  0
 19 20  2  0
 20 21  1  0
 21 22  2  0
 22 23  1  0
 18 11  1  0
 23 19  1  0
 18 14  1  0
  3 24  1  0
  4 25  1  0
  4 26  1  0
  5 27  1  0
  6 28  1  0
  6 29  1  0
  7 30  1  0
  8 31  1  0
 12 32  1  0
 16 33  1  0
 17 34  1  0
 20 35  1  0
 22 36  1  0
 23 37  1  0
M  END
>  <Energy>  (187) 
36.451156654585112

>  <compound_id>  (187) 
46120

>  <target_id>  (187) 
1

>  <reference_id>  (187) 
64

>  <inspiration_ids>  (187) 
[64, 52]

>  <energy_score>  (187) 
26.56873058382331

>  <distance_score>  (187) 
3.635492409832915

>  <path>  (187) 
/opt/xchem-fragalysis-2/maxwin/BulkDock/SCRATCH/511022/C46120-P64/C46120-P64.minimised.mol

>  <scratch_subdir>  (187) 
/opt/xchem-fragalysis-2/maxwin/BulkDock/SCRATCH/511022/C46120-P64

>  <fragmenstein_runtime>  (187) 
5.833686351776123

>  <fragmenstein_outcome>  (187) 
too moved

>  <fragmenstein_mode>  (187) 
expansion

>  <fragmenstein_error>  (187) 


$$$$
C46120-P52
     RDKit          3D

 37 39  0  0  0  0  0  0  0  0999 V2000
  -12.4412  -26.5216   31.0655 O   0  0  0  0  0  0  0  0  0  0  0  0
  -11.4622  -26.0778   30.6156 C   0  0  0  0  0  0  0  0  0  0  0  0
  -10.1855  -25.5756   31.3087 N   0  0  0  0  0  0  0  0  0  0  0  0
   -9.7997  -25.6000   32.7088 C   0  0  0  0  0  0  0  0  0  0  0  0
  -10.0682  -24.2943   33.4631 C   0  0  0  0  0  0  0  0  0  0  0  0
   -8.8626  -23.4186   33.7741 C   0  0  0  0  0  0  0  0  0  0  0  0
   -7.9140  -23.5004   32.7267 O   0  0  0  0  0  0  0  0  0  0  0  0
  -10.8166  -23.3698   32.6993 N   0  0  0  0  0  0  0  0  0  0  0  0
  -11.9434  -22.4377   33.1053 C   0  0  0  0  0  0  0  0  0  0  0  0
  -12.4986  -22.3261   34.1141 O   0  0  0  0  0  0  0  0  0  0  0  0
  -12.1318  -21.6152   31.9693 C   0  0  0  0  0  0  0  0  0  0  0  0
  -11.5380  -20.3679   31.9926 C   0  0  0  0  0  0  0  0  0  0  0  0
  -11.1108  -20.0084   30.7488 N   0  0  0  0  0  0  0  0  0  0  0  0
  -11.5257  -20.9657   29.9849 C   0  0  0  0  0  0  0  0  0  0  0  0
  -11.2729  -21.3798   28.3280 S   0  0  0  0  0  0  0  0  0  0  0  0
  -12.2315  -22.7979   28.5647 C   0  0  0  0  0  0  0  0  0  0  0  0
  -12.5838  -22.9754   29.8422 C   0  0  0  0  0  0  0  0  0  0  0  0
  -12.2008  -21.9359   30.6454 N   0  0  0  0  0  0  0  0  0  0  0  0
  -11.3796  -25.9466   29.1731 C   0  0  0  0  0  0  0  0  0  0  0  0
  -10.4492  -25.4010   28.3147 C   0  0  0  0  0  0  0  0  0  0  0  0
  -10.8628  -25.4863   27.0105 N   0  0  0  0  0  0  0  0  0  0  0  0
  -12.0345  -26.0691   27.0476 C   0  0  0  0  0  0  0  0  0  0  0  0
  -12.3872  -26.3664   28.3258 N   0  0  0  0  0  0  0  0  0  0  0  0
   -9.4966  -25.3313   30.6105 H   0  0  0  0  0  0  0  0  0  0  0  0
  -10.3845  -26.4016   33.1689 H   0  0  0  0  0  0  0  0  0  0  0  0
   -8.7579  -25.9150   32.7594 H   0  0  0  0  0  0  0  0  0  0  0  0
  -10.5702  -24.4653   34.4074 H   0  0  0  0  0  0  0  0  0  0  0  0
   -8.4422  -23.6423   34.7498 H   0  0  0  0  0  0  0  0  0  0  0  0
   -9.1357  -22.3591   33.8455 H   0  0  0  0  0  0  0  0  0  0  0  0
   -7.2162  -24.1108   33.0669 H   0  0  0  0  0  0  0  0  0  0  0  0
  -10.5123  -23.1425   31.7612 H   0  0  0  0  0  0  0  0  0  0  0  0
  -11.2570  -19.7894   32.8649 H   0  0  0  0  0  0  0  0  0  0  0  0
  -12.4426  -23.4599   27.7398 H   0  0  0  0  0  0  0  0  0  0  0  0
  -13.0833  -23.8254   30.2305 H   0  0  0  0  0  0  0  0  0  0  0  0
   -9.5073  -24.9272   28.5561 H   0  0  0  0  0  0  0  0  0  0  0  0
  -12.6574  -26.3017   26.1941 H   0  0  0  0  0  0  0  0  0  0  0  0
  -13.2362  -26.8269   28.6266 H   0  0  0  0  0  0  0  0  0  0  0  0
  1  2  2  0
  2  3  1  0
  3  4  1  0
  4  5  1  0
  5  6  1  0
  6  7  1  0
  5  8  1  0
  8  9  1  0
  9 10  2  0
  9 11  1  0
 11 12  2  0
 12 13  1  0
 13 14  2  0
 14 15  1  0
 15 16  1  0
 16 17  2  0
 17 18  1  0
  2 19  1  0
 19 20  2  0
 20 21  1  0
 21 22  2  0
 22 23  1  0
 18 11  1  0
 23 19  1  0
 18 14  1  0
  3 24  1  0
  4 25  1  0
  4 26  1  0
  5 27  1  0
  6 28  1  0
  6 29  1  0
  7 30  1  0
  8 31  1  0
 12 32  1  0
 16 33  1  0
 17 34  1  0
 20 35  1  0
 22 36  1  0
 23 37  1  0
M  END
>  <Energy>  (188) 
32.804971088962162

>  <compound_id>  (188) 
46120

>  <target_id>  (188) 
1

>  <reference_id>  (188) 
52

>  <inspiration_ids>  (188) 
[64, 52]

>  <energy_score>  (188) 
22.922545018202072

>  <distance_score>  (188) 
2.1858759297596415

>  <path>  (188) 
/opt/xchem-fragalysis-2/maxwin/BulkDock/SCRATCH/511022/C46120-P52/C46120-P52.minimised.mol

>  <scratch_subdir>  (188) 
/opt/xchem-fragalysis-2/maxwin/BulkDock/SCRATCH/511022/C46120-P52

>  <fragmenstein_runtime>  (188) 
6.572773694992065

>  <fragmenstein_outcome>  (188) 
too moved

>  <fragmenstein_mode>  (188) 
expansion

>  <fragmenstein_error>  (188) 


$$$$
C46121-P64
     RDKit          3D

 34 36  0  0  0  0  0  0  0  0999 V2000
  -11.4180  -21.8967   27.3604 O   0  0  0  0  0  0  0  0  0  0  0  0
  -11.3506  -22.9666   27.6793 C   0  0  0  0  0  0  0  0  0  0  0  0
  -11.3820  -24.2378   26.8544 N   0  0  0  0  0  0  0  0  0  0  0  0
  -11.6020  -24.4282   25.4524 C   0  0  0  0  0  0  0  0  0  0  0  0
  -13.1317  -24.4250   25.3716 C   0  0  0  0  0  0  0  0  0  0  0  0
  -13.6622  -25.5849   26.0745 N   0  0  0  0  0  0  0  0  0  0  0  0
  -14.9279  -25.6908   26.5535 C   0  0  0  0  0  0  0  0  0  0  0  0
  -14.9395  -26.8545   27.2808 C   0  0  0  0  0  0  0  0  0  0  0  0
  -13.7132  -27.4563   27.2564 N   0  0  0  0  0  0  0  0  0  0  0  0
  -12.9837  -26.6992   26.4717 C   0  0  0  0  0  0  0  0  0  0  0  0
  -11.3032  -23.5705   29.0606 N   0  0  0  0  0  0  0  0  0  0  0  0
  -11.4182  -22.9951   30.2614 C   0  0  0  0  0  0  0  0  0  0  0  0
  -11.7249  -21.7026   30.5577 C   0  0  0  0  0  0  0  0  0  0  0  0
  -12.0836  -21.5710   31.8722 N   0  0  0  0  0  0  0  0  0  0  0  0
  -11.8823  -22.7728   32.3608 C   0  0  0  0  0  0  0  0  0  0  0  0
  -12.2068  -23.4061   33.5748 C   0  0  0  0  0  0  0  0  0  0  0  0
  -11.6355  -24.5917   33.8319 C   0  0  0  0  0  0  0  0  0  0  0  0
  -10.6908  -25.2037   32.9592 C   0  0  0  0  0  0  0  0  0  0  0  0
  -10.5215  -24.7178   31.7386 C   0  0  0  0  0  0  0  0  0  0  0  0
  -11.2109  -23.5690   31.4500 N   0  0  0  0  0  0  0  0  0  0  0  0
  -11.2157  -25.0300   27.4489 H   0  0  0  0  0  0  0  0  0  0  0  0
  -11.2256  -23.5926   24.8740 H   0  0  0  0  0  0  0  0  0  0  0  0
  -11.1221  -25.3465   25.1148 H   0  0  0  0  0  0  0  0  0  0  0  0
  -13.6214  -24.4073   24.4021 H   0  0  0  0  0  0  0  0  0  0  0  0
  -13.5302  -23.5533   25.8822 H   0  0  0  0  0  0  0  0  0  0  0  0
  -15.6958  -24.9526   26.3710 H   0  0  0  0  0  0  0  0  0  0  0  0
  -15.7641  -27.2676   27.8492 H   0  0  0  0  0  0  0  0  0  0  0  0
  -11.9668  -26.9398   26.1896 H   0  0  0  0  0  0  0  0  0  0  0  0
  -11.3258  -24.5725   28.9914 H   0  0  0  0  0  0  0  0  0  0  0  0
  -11.7934  -20.9191   29.8221 H   0  0  0  0  0  0  0  0  0  0  0  0
  -12.9596  -22.9749   34.2099 H   0  0  0  0  0  0  0  0  0  0  0  0
  -11.8731  -25.2301   34.6568 H   0  0  0  0  0  0  0  0  0  0  0  0
  -10.3608  -26.1759   33.2316 H   0  0  0  0  0  0  0  0  0  0  0  0
   -9.9564  -25.2172   30.9663 H   0  0  0  0  0  0  0  0  0  0  0  0
  1  2  2  0
  2  3  1  0
  3  4  1  0
  4  5  1  0
  5  6  1  0
  6  7  1  0
  7  8  2  0
  8  9  1  0
  9 10  2  0
  2 11  1  0
 11 12  1  0
 12 13  2  0
 13 14  1  0
 14 15  2  0
 15 16  1  0
 16 17  2  0
 17 18  1  0
 18 19  2  0
 19 20  1  0
 10  6  1  0
 20 12  1  0
 20 15  1  0
  3 21  1  0
  4 22  1  0
  4 23  1  0
  5 24  1  0
  5 25  1  0
  7 26  1  0
  8 27  1  0
 10 28  1  0
 11 29  1  0
 13 30  1  0
 16 31  1  0
 17 32  1  0
 18 33  1  0
 19 34  1  0
M  END
>  <Energy>  (189) 
45.893309746984137

>  <compound_id>  (189) 
46121

>  <target_id>  (189) 
1

>  <reference_id>  (189) 
64

>  <inspiration_ids>  (189) 
[64, 52]

>  <energy_score>  (189) 
12.81466803953387

>  <distance_score>  (189) 
2.6175112008152195

>  <path>  (189) 
/opt/xchem-fragalysis-2/maxwin/BulkDock/SCRATCH/511022/C46121-P64/C46121-P64.minimised.mol

>  <scratch_subdir>  (189) 
/opt/xchem-fragalysis-2/maxwin/BulkDock/SCRATCH/511022/C46121-P64

>  <fragmenstein_runtime>  (189) 
7.154827356338501

>  <fragmenstein_outcome>  (189) 
too moved

>  <fragmenstein_mode>  (189) 
expansion

>  <fragmenstein_error>  (189) 


$$$$
C46121-P52
     RDKit          3D

 34 36  0  0  0  0  0  0  0  0999 V2000
  -12.0627  -21.1808   27.8578 O   0  0  0  0  0  0  0  0  0  0  0  0
  -11.4861  -22.1080   28.1209 C   0  0  0  0  0  0  0  0  0  0  0  0
  -11.0590  -23.2729   27.2546 N   0  0  0  0  0  0  0  0  0  0  0  0
  -11.3506  -23.5658   25.8843 C   0  0  0  0  0  0  0  0  0  0  0  0
  -12.6273  -24.4275   25.9741 C   0  0  0  0  0  0  0  0  0  0  0  0
  -12.4861  -25.4171   27.0470 N   0  0  0  0  0  0  0  0  0  0  0  0
  -13.2457  -25.5215   28.1731 C   0  0  0  0  0  0  0  0  0  0  0  0
  -12.5516  -26.3715   29.0006 C   0  0  0  0  0  0  0  0  0  0  0  0
  -11.3802  -26.7641   28.4233 N   0  0  0  0  0  0  0  0  0  0  0  0
  -11.3699  -26.1739   27.2546 C   0  0  0  0  0  0  0  0  0  0  0  0
  -10.9924  -22.6112   29.4751 N   0  0  0  0  0  0  0  0  0  0  0  0
  -11.1957  -22.1228   30.7128 C   0  0  0  0  0  0  0  0  0  0  0  0
  -11.8710  -20.9790   31.0324 C   0  0  0  0  0  0  0  0  0  0  0  0
  -12.0237  -20.8306   32.3732 N   0  0  0  0  0  0  0  0  0  0  0  0
  -11.4366  -21.8942   32.8774 C   0  0  0  0  0  0  0  0  0  0  0  0
  -11.2570  -22.3141   34.2160 C   0  0  0  0  0  0  0  0  0  0  0  0
  -10.4976  -23.3901   34.4734 C   0  0  0  0  0  0  0  0  0  0  0  0
   -9.9259  -24.1995   33.4221 C   0  0  0  0  0  0  0  0  0  0  0  0
  -10.1316  -23.8461   32.1487 C   0  0  0  0  0  0  0  0  0  0  0  0
  -10.8688  -22.7007   31.8938 N   0  0  0  0  0  0  0  0  0  0  0  0
  -10.4842  -23.8984   27.7905 H   0  0  0  0  0  0  0  0  0  0  0  0
  -10.5069  -24.0952   25.4453 H   0  0  0  0  0  0  0  0  0  0  0  0
  -11.5663  -22.6502   25.3314 H   0  0  0  0  0  0  0  0  0  0  0  0
  -12.8986  -25.0149   25.1032 H   0  0  0  0  0  0  0  0  0  0  0  0
  -13.4915  -23.8099   26.2201 H   0  0  0  0  0  0  0  0  0  0  0  0
  -14.1788  -24.9994   28.2908 H   0  0  0  0  0  0  0  0  0  0  0  0
  -12.8364  -26.7229   29.9826 H   0  0  0  0  0  0  0  0  0  0  0  0
  -10.5553  -26.2036   26.5471 H   0  0  0  0  0  0  0  0  0  0  0  0
  -10.4371  -23.4367   29.3463 H   0  0  0  0  0  0  0  0  0  0  0  0
  -12.2543  -20.2911   30.3018 H   0  0  0  0  0  0  0  0  0  0  0  0
  -11.7191  -21.7348   35.0076 H   0  0  0  0  0  0  0  0  0  0  0  0
  -10.3330  -23.6908   35.4940 H   0  0  0  0  0  0  0  0  0  0  0  0
   -9.3585  -25.0853   33.6757 H   0  0  0  0  0  0  0  0  0  0  0  0
   -9.7318  -24.4070   31.3156 H   0  0  0  0  0  0  0  0  0  0  0  0
  1  2  2  0
  2  3  1  0
  3  4  1  0
  4  5  1  0
  5  6  1  0
  6  7  1  0
  7  8  2  0
  8  9  1  0
  9 10  2  0
  2 11  1  0
 11 12  1  0
 12 13  2  0
 13 14  1  0
 14 15  2  0
 15 16  1  0
 16 17  2  0
 17 18  1  0
 18 19  2  0
 19 20  1  0
 10  6  1  0
 20 12  1  0
 20 15  1  0
  3 21  1  0
  4 22  1  0
  4 23  1  0
  5 24  1  0
  5 25  1  0
  7 26  1  0
  8 27  1  0
 10 28  1  0
 11 29  1  0
 13 30  1  0
 16 31  1  0
 17 32  1  0
 18 33  1  0
 19 34  1  0
M  END
>  <Energy>  (190) 
29.905857658978984

>  <compound_id>  (190) 
46121

>  <target_id>  (190) 
1

>  <reference_id>  (190) 
52

>  <inspiration_ids>  (190) 
[64, 52]

>  <energy_score>  (190) 
-3.1727840484696515

>  <distance_score>  (190) 
1.7748402383318933

>  <path>  (190) 
/opt/xchem-fragalysis-2/maxwin/BulkDock/SCRATCH/511022/C46121-P52/C46121-P52.minimised.mol

>  <scratch_subdir>  (190) 
/opt/xchem-fragalysis-2/maxwin/BulkDock/SCRATCH/511022/C46121-P52

>  <fragmenstein_runtime>  (190) 
4.084776163101196

>  <fragmenstein_outcome>  (190) 
too moved

>  <fragmenstein_mode>  (190) 
expansion

>  <fragmenstein_error>  (190) 


$$$$
C46122-P64
     RDKit          3D

 37 39  0  0  0  0  0  0  0  0999 V2000
  -10.8026  -26.8892   28.0630 C   0  0  0  0  0  0  0  0  0  0  0  0
  -12.0954  -27.2604   27.4129 C   0  0  0  0  0  0  0  0  0  0  0  0
  -13.0670  -28.0249   27.8949 N   0  0  0  0  0  0  0  0  0  0  0  0
  -14.2306  -27.5540   27.2888 C   0  0  0  0  0  0  0  0  0  0  0  0
  -13.9191  -26.6717   26.2829 C   0  0  0  0  0  0  0  0  0  0  0  0
  -12.5544  -26.6274   26.2948 N   0  0  0  0  0  0  0  0  0  0  0  0
  -11.6958  -26.0800   25.2887 C   0  0  0  0  0  0  0  0  0  0  0  0
  -11.6168  -24.5630   25.2963 C   0  0  0  0  0  0  0  0  0  0  0  0
  -11.3513  -24.0231   26.5757 N   0  0  0  0  0  0  0  0  0  0  0  0
  -12.1767  -23.9702   27.7759 C   0  0  0  0  0  0  0  0  0  0  0  0
  -13.2206  -24.4296   27.9850 O   0  0  0  0  0  0  0  0  0  0  0  0
  -11.3343  -23.1479   28.6159 N   0  0  0  0  0  0  0  0  0  0  0  0
  -11.4804  -22.7632   29.8884 C   0  0  0  0  0  0  0  0  0  0  0  0
  -11.7011  -21.5141   30.3404 C   0  0  0  0  0  0  0  0  0  0  0  0
  -11.9400  -21.4899   31.6813 N   0  0  0  0  0  0  0  0  0  0  0  0
  -11.7849  -22.7387   32.0569 C   0  0  0  0  0  0  0  0  0  0  0  0
  -11.9564  -23.4023   33.2918 C   0  0  0  0  0  0  0  0  0  0  0  0
  -11.3630  -24.5971   33.4656 C   0  0  0  0  0  0  0  0  0  0  0  0
  -10.5950  -25.2155   32.4127 C   0  0  0  0  0  0  0  0  0  0  0  0
  -10.6101  -24.6917   31.1882 C   0  0  0  0  0  0  0  0  0  0  0  0
  -11.2798  -23.5008   31.0136 N   0  0  0  0  0  0  0  0  0  0  0  0
   -9.9446  -27.0253   27.4069 H   0  0  0  0  0  0  0  0  0  0  0  0
  -10.7855  -25.8421   28.3408 H   0  0  0  0  0  0  0  0  0  0  0  0
  -10.6607  -27.4159   29.0040 H   0  0  0  0  0  0  0  0  0  0  0  0
  -15.2068  -27.8917   27.6120 H   0  0  0  0  0  0  0  0  0  0  0  0
  -14.5268  -26.1173   25.5842 H   0  0  0  0  0  0  0  0  0  0  0  0
  -12.0717  -26.4911   24.3566 H   0  0  0  0  0  0  0  0  0  0  0  0
  -10.7101  -26.5270   25.4125 H   0  0  0  0  0  0  0  0  0  0  0  0
  -12.5853  -24.1319   25.0206 H   0  0  0  0  0  0  0  0  0  0  0  0
  -10.8487  -24.2015   24.6111 H   0  0  0  0  0  0  0  0  0  0  0  0
  -10.4762  -23.5922   26.7610 H   0  0  0  0  0  0  0  0  0  0  0  0
  -10.4646  -22.9930   28.1564 H   0  0  0  0  0  0  0  0  0  0  0  0
  -11.7787  -20.6796   29.6755 H   0  0  0  0  0  0  0  0  0  0  0  0
  -12.5503  -22.9415   34.0677 H   0  0  0  0  0  0  0  0  0  0  0  0
  -11.4825  -25.1581   34.3836 H   0  0  0  0  0  0  0  0  0  0  0  0
  -10.2264  -26.2089   32.5465 H   0  0  0  0  0  0  0  0  0  0  0  0
  -10.1677  -25.1773   30.3361 H   0  0  0  0  0  0  0  0  0  0  0  0
  1  2  1  0
  2  3  2  0
  3  4  1  0
  4  5  2  0
  5  6  1  0
  6  7  1  0
  7  8  1  0
  8  9  1  0
  9 10  1  0
 10 11  2  0
 10 12  1  0
 12 13  1  0
 13 14  2  0
 14 15  1  0
 15 16  2  0
 16 17  1  0
 17 18  2  0
 18 19  1  0
 19 20  2  0
 20 21  1  0
  6  2  1  0
 21 13  1  0
 21 16  1  0
  1 22  1  0
  1 23  1  0
  1 24  1  0
  4 25  1  0
  5 26  1  0
  7 27  1  0
  7 28  1  0
  8 29  1  0
  8 30  1  0
  9 31  1  0
 12 32  1  0
 14 33  1  0
 17 34  1  0
 18 35  1  0
 19 36  1  0
 20 37  1  0
M  END
>  <Energy>  (191) 
62.72198299394411

>  <compound_id>  (191) 
46122

>  <target_id>  (191) 
1

>  <reference_id>  (191) 
64

>  <inspiration_ids>  (191) 
[64, 52]

>  <energy_score>  (191) 
42.429888338425286

>  <distance_score>  (191) 
2.7887074601217616

>  <path>  (191) 
/opt/xchem-fragalysis-2/maxwin/BulkDock/SCRATCH/511022/C46122-P64/C46122-P64.minimised.mol

>  <scratch_subdir>  (191) 
/opt/xchem-fragalysis-2/maxwin/BulkDock/SCRATCH/511022/C46122-P64

>  <fragmenstein_runtime>  (191) 
7.243743896484375

>  <fragmenstein_outcome>  (191) 
too moved

>  <fragmenstein_mode>  (191) 
expansion

>  <fragmenstein_error>  (191) 


$$$$
C46122-P52
     RDKit          3D

 37 39  0  0  0  0  0  0  0  0999 V2000
  -12.2230  -26.4805   29.3433 C   0  0  0  0  0  0  0  0  0  0  0  0
  -12.9802  -26.8904   28.1410 C   0  0  0  0  0  0  0  0  0  0  0  0
  -13.5826  -28.0587   28.0422 N   0  0  0  0  0  0  0  0  0  0  0  0
  -14.3276  -28.0031   26.9039 C   0  0  0  0  0  0  0  0  0  0  0  0
  -14.1297  -26.8112   26.2566 C   0  0  0  0  0  0  0  0  0  0  0  0
  -13.2088  -26.1319   27.0126 N   0  0  0  0  0  0  0  0  0  0  0  0
  -12.7598  -24.7944   26.6683 C   0  0  0  0  0  0  0  0  0  0  0  0
  -11.2422  -24.5809   26.6326 C   0  0  0  0  0  0  0  0  0  0  0  0
  -10.7595  -24.2630   27.9515 N   0  0  0  0  0  0  0  0  0  0  0  0
  -11.2401  -23.2767   28.9422 C   0  0  0  0  0  0  0  0  0  0  0  0
  -12.0793  -22.4674   28.8530 O   0  0  0  0  0  0  0  0  0  0  0  0
  -10.4140  -23.6816   30.1185 N   0  0  0  0  0  0  0  0  0  0  0  0
  -10.4711  -23.2861   31.4349 C   0  0  0  0  0  0  0  0  0  0  0  0
   -9.6278  -23.7323   32.4366 C   0  0  0  0  0  0  0  0  0  0  0  0
   -9.9761  -23.2379   33.6556 N   0  0  0  0  0  0  0  0  0  0  0  0
  -11.0271  -22.4868   33.4319 C   0  0  0  0  0  0  0  0  0  0  0  0
  -11.8324  -21.7657   34.3482 C   0  0  0  0  0  0  0  0  0  0  0  0
  -12.9062  -21.0867   33.9194 C   0  0  0  0  0  0  0  0  0  0  0  0
  -13.2749  -21.0862   32.5284 C   0  0  0  0  0  0  0  0  0  0  0  0
  -12.5143  -21.7579   31.6535 C   0  0  0  0  0  0  0  0  0  0  0  0
  -11.3874  -22.4592   32.0822 N   0  0  0  0  0  0  0  0  0  0  0  0
  -12.4204  -27.1755   30.1670 H   0  0  0  0  0  0  0  0  0  0  0  0
  -12.5390  -25.4935   29.6816 H   0  0  0  0  0  0  0  0  0  0  0  0
  -11.1500  -26.5048   29.1565 H   0  0  0  0  0  0  0  0  0  0  0  0
  -14.9775  -28.8192   26.6163 H   0  0  0  0  0  0  0  0  0  0  0  0
  -14.5605  -26.4000   25.3538 H   0  0  0  0  0  0  0  0  0  0  0  0
  -13.2610  -24.1292   27.3717 H   0  0  0  0  0  0  0  0  0  0  0  0
  -13.1605  -24.5727   25.6726 H   0  0  0  0  0  0  0  0  0  0  0  0
  -11.0048  -23.7214   25.9984 H   0  0  0  0  0  0  0  0  0  0  0  0
  -10.7189  -25.4662   26.2650 H   0  0  0  0  0  0  0  0  0  0  0  0
   -9.9686  -24.7516   28.3277 H   0  0  0  0  0  0  0  0  0  0  0  0
   -9.8420  -24.4655   29.8687 H   0  0  0  0  0  0  0  0  0  0  0  0
   -8.7805  -24.4015   32.3493 H   0  0  0  0  0  0  0  0  0  0  0  0
  -11.5736  -21.7934   35.3955 H   0  0  0  0  0  0  0  0  0  0  0  0
  -13.5510  -20.5612   34.6134 H   0  0  0  0  0  0  0  0  0  0  0  0
  -14.2011  -20.6070   32.2337 H   0  0  0  0  0  0  0  0  0  0  0  0
  -12.8163  -21.8001   30.6299 H   0  0  0  0  0  0  0  0  0  0  0  0
  1  2  1  0
  2  3  2  0
  3  4  1  0
  4  5  2  0
  5  6  1  0
  6  7  1  0
  7  8  1  0
  8  9  1  0
  9 10  1  0
 10 11  2  0
 10 12  1  0
 12 13  1  0
 13 14  2  0
 14 15  1  0
 15 16  2  0
 16 17  1  0
 17 18  2  0
 18 19  1  0
 19 20  2  0
 20 21  1  0
  6  2  1  0
 21 13  1  0
 21 16  1  0
  1 22  1  0
  1 23  1  0
  1 24  1  0
  4 25  1  0
  5 26  1  0
  7 27  1  0
  7 28  1  0
  8 29  1  0
  8 30  1  0
  9 31  1  0
 12 32  1  0
 14 33  1  0
 17 34  1  0
 18 35  1  0
 19 36  1  0
 20 37  1  0
M  END
>  <Energy>  (192) 
20.980680271458485

>  <compound_id>  (192) 
46122

>  <target_id>  (192) 
1

>  <reference_id>  (192) 
52

>  <inspiration_ids>  (192) 
[64, 52]

>  <energy_score>  (192) 
0.6885856159397008

>  <distance_score>  (192) 
3.4475956440426136

>  <path>  (192) 
/opt/xchem-fragalysis-2/maxwin/BulkDock/SCRATCH/511022/C46122-P52/C46122-P52.minimised.mol

>  <scratch_subdir>  (192) 
/opt/xchem-fragalysis-2/maxwin/BulkDock/SCRATCH/511022/C46122-P52

>  <fragmenstein_runtime>  (192) 
7.253340482711792

>  <fragmenstein_outcome>  (192) 
too moved

>  <fragmenstein_mode>  (192) 
expansion

>  <fragmenstein_error>  (192) 


$$$$
C46124-P64
     RDKit          3D

 32 34  0  0  0  0  0  0  0  0999 V2000
  -16.6012  -24.5246   25.2789 C   0  0  0  0  0  0  0  0  0  0  0  0
  -15.5941  -25.4229   25.7839 N   0  0  0  0  0  0  0  0  0  0  0  0
  -15.8293  -26.4719   26.6242 C   0  0  0  0  0  0  0  0  0  0  0  0
  -14.7158  -27.0765   26.9610 N   0  0  0  0  0  0  0  0  0  0  0  0
  -13.7149  -26.3882   26.2937 C   0  0  0  0  0  0  0  0  0  0  0  0
  -12.0297  -26.6427   26.6412 S   0  0  0  0  0  0  0  0  0  0  0  0
  -11.9843  -27.8270   27.4739 O   0  0  0  0  0  0  0  0  0  0  0  0
  -11.2997  -26.4445   25.4161 O   0  0  0  0  0  0  0  0  0  0  0  0
  -11.7084  -25.4713   27.7027 N   0  0  0  0  0  0  0  0  0  0  0  0
  -11.5576  -24.0565   27.5271 C   0  0  0  0  0  0  0  0  0  0  0  0
  -11.5525  -23.3956   26.5396 O   0  0  0  0  0  0  0  0  0  0  0  0
  -11.5008  -23.4239   28.8254 C   0  0  0  0  0  0  0  0  0  0  0  0
  -11.7402  -22.1113   29.1571 C   0  0  0  0  0  0  0  0  0  0  0  0
  -11.8469  -21.9121   30.5076 N   0  0  0  0  0  0  0  0  0  0  0  0
  -11.4856  -23.0618   31.0323 C   0  0  0  0  0  0  0  0  0  0  0  0
  -11.2975  -23.4974   32.3727 C   0  0  0  0  0  0  0  0  0  0  0  0
  -10.5715  -24.6098   32.6011 C   0  0  0  0  0  0  0  0  0  0  0  0
   -9.9699  -25.3517   31.5166 C   0  0  0  0  0  0  0  0  0  0  0  0
  -10.2727  -25.0401   30.2617 C   0  0  0  0  0  0  0  0  0  0  0  0
  -11.0942  -23.9477   30.0284 N   0  0  0  0  0  0  0  0  0  0  0  0
  -14.2496  -25.3376   25.5752 C   0  0  0  0  0  0  0  0  0  0  0  0
  -17.1121  -25.0185   24.4490 H   0  0  0  0  0  0  0  0  0  0  0  0
  -16.1262  -23.6018   24.9361 H   0  0  0  0  0  0  0  0  0  0  0  0
  -17.3094  -24.2991   26.0803 H   0  0  0  0  0  0  0  0  0  0  0  0
  -16.8197  -26.7389   26.9714 H   0  0  0  0  0  0  0  0  0  0  0  0
  -11.7474  -25.6801   28.6921 H   0  0  0  0  0  0  0  0  0  0  0  0
  -11.8874  -21.3123   28.4606 H   0  0  0  0  0  0  0  0  0  0  0  0
  -11.7843  -22.9537   33.1727 H   0  0  0  0  0  0  0  0  0  0  0  0
  -10.4548  -25.0235   33.5957 H   0  0  0  0  0  0  0  0  0  0  0  0
   -9.3134  -26.1845   31.6742 H   0  0  0  0  0  0  0  0  0  0  0  0
   -9.8406  -25.5808   29.4298 H   0  0  0  0  0  0  0  0  0  0  0  0
  -13.7829  -24.5360   25.0180 H   0  0  0  0  0  0  0  0  0  0  0  0
  1  2  1  0
  2  3  1  0
  3  4  2  0
  4  5  1  0
  5  6  1  0
  6  7  2  0
  6  8  2  0
  6  9  1  0
  9 10  1  0
 10 11  2  0
 10 12  1  0
 12 13  2  0
 13 14  1  0
 14 15  2  0
 15 16  1  0
 16 17  2  0
 17 18  1  0
 18 19  2  0
 19 20  1  0
  5 21  2  0
 21  2  1  0
 20 12  1  0
 20 15  1  0
  1 22  1  0
  1 23  1  0
  1 24  1  0
  3 25  1  0
  9 26  1  0
 13 27  1  0
 16 28  1  0
 17 29  1  0
 18 30  1  0
 19 31  1  0
 21 32  1  0
M  END
>  <Energy>  (193) 
-26.483484764235506

>  <compound_id>  (193) 
46124

>  <target_id>  (193) 
1

>  <reference_id>  (193) 
64

>  <inspiration_ids>  (193) 
[64, 52]

>  <energy_score>  (193) 
-32.069461923486955

>  <distance_score>  (193) 
3.592546920695643

>  <path>  (193) 
/opt/xchem-fragalysis-2/maxwin/BulkDock/SCRATCH/511022/C46124-P64/C46124-P64.minimised.mol

>  <scratch_subdir>  (193) 
/opt/xchem-fragalysis-2/maxwin/BulkDock/SCRATCH/511022/C46124-P64

>  <fragmenstein_runtime>  (193) 
11.199740409851074

>  <fragmenstein_outcome>  (193) 
too moved

>  <fragmenstein_mode>  (193) 
expansion

>  <fragmenstein_error>  (193) 


$$$$
C46124-P52
     RDKit          3D

 32 34  0  0  0  0  0  0  0  0999 V2000
  -13.5431  -28.4623   27.8071 C   0  0  0  0  0  0  0  0  0  0  0  0
  -12.7168  -27.2900   27.6646 N   0  0  0  0  0  0  0  0  0  0  0  0
  -11.7275  -26.9136   28.5259 C   0  0  0  0  0  0  0  0  0  0  0  0
  -11.1622  -25.7900   28.1572 N   0  0  0  0  0  0  0  0  0  0  0  0
  -11.8654  -25.4085   27.0082 C   0  0  0  0  0  0  0  0  0  0  0  0
  -11.7946  -23.7724   26.3791 S   0  0  0  0  0  0  0  0  0  0  0  0
  -10.5358  -23.7075   25.6887 O   0  0  0  0  0  0  0  0  0  0  0  0
  -13.0743  -23.5894   25.7347 O   0  0  0  0  0  0  0  0  0  0  0  0
  -11.7151  -22.9615   27.7798 N   0  0  0  0  0  0  0  0  0  0  0  0
  -12.4509  -23.1923   29.1108 C   0  0  0  0  0  0  0  0  0  0  0  0
  -13.2869  -23.9531   29.3883 O   0  0  0  0  0  0  0  0  0  0  0  0
  -11.8926  -22.3651   30.1160 C   0  0  0  0  0  0  0  0  0  0  0  0
  -11.7952  -21.0071   30.2537 C   0  0  0  0  0  0  0  0  0  0  0  0
  -11.4400  -20.6793   31.5371 N   0  0  0  0  0  0  0  0  0  0  0  0
  -11.1935  -21.8235   32.1353 C   0  0  0  0  0  0  0  0  0  0  0  0
  -10.7191  -22.1515   33.4311 C   0  0  0  0  0  0  0  0  0  0  0  0
  -10.1818  -23.3623   33.6676 C   0  0  0  0  0  0  0  0  0  0  0  0
  -10.1436  -24.3798   32.6406 C   0  0  0  0  0  0  0  0  0  0  0  0
  -10.7701  -24.1356   31.4818 C   0  0  0  0  0  0  0  0  0  0  0  0
  -11.3077  -22.8713   31.2488 N   0  0  0  0  0  0  0  0  0  0  0  0
  -12.8240  -26.3455   26.6891 C   0  0  0  0  0  0  0  0  0  0  0  0
  -12.8989  -29.3216   28.0112 H   0  0  0  0  0  0  0  0  0  0  0  0
  -14.2342  -28.2957   28.6370 H   0  0  0  0  0  0  0  0  0  0  0  0
  -14.0992  -28.6309   26.8815 H   0  0  0  0  0  0  0  0  0  0  0  0
  -11.4752  -27.4939   29.4015 H   0  0  0  0  0  0  0  0  0  0  0  0
  -10.9822  -22.2688   27.9128 H   0  0  0  0  0  0  0  0  0  0  0  0
  -12.0292  -20.2401   29.5281 H   0  0  0  0  0  0  0  0  0  0  0  0
  -10.8164  -21.3987   34.1986 H   0  0  0  0  0  0  0  0  0  0  0  0
   -9.8013  -23.6184   34.6507 H   0  0  0  0  0  0  0  0  0  0  0  0
   -9.6439  -25.3206   32.8479 H   0  0  0  0  0  0  0  0  0  0  0  0
  -10.8085  -24.8610   30.6794 H   0  0  0  0  0  0  0  0  0  0  0  0
  -13.5943  -26.3552   25.9310 H   0  0  0  0  0  0  0  0  0  0  0  0
  1  2  1  0
  2  3  1  0
  3  4  2  0
  4  5  1  0
  5  6  1  0
  6  7  2  0
  6  8  2  0
  6  9  1  0
  9 10  1  0
 10 11  2  0
 10 12  1  0
 12 13  2  0
 13 14  1  0
 14 15  2  0
 15 16  1  0
 16 17  2  0
 17 18  1  0
 18 19  2  0
 19 20  1  0
  5 21  2  0
 21  2  1  0
 20 12  1  0
 20 15  1  0
  1 22  1  0
  1 23  1  0
  1 24  1  0
  3 25  1  0
  9 26  1  0
 13 27  1  0
 16 28  1  0
 17 29  1  0
 18 30  1  0
 19 31  1  0
 21 32  1  0
M  END
>  <Energy>  (194) 
-25.461817415541347

>  <compound_id>  (194) 
46124

>  <target_id>  (194) 
1

>  <reference_id>  (194) 
52

>  <inspiration_ids>  (194) 
[64, 52]

>  <energy_score>  (194) 
-16.22451675599001

>  <distance_score>  (194) 
2.418883072969335

>  <path>  (194) 
/opt/xchem-fragalysis-2/maxwin/BulkDock/SCRATCH/511022/C46124-P52/C46124-P52.minimised.mol

>  <scratch_subdir>  (194) 
/opt/xchem-fragalysis-2/maxwin/BulkDock/SCRATCH/511022/C46124-P52

>  <fragmenstein_runtime>  (194) 
8.13265323638916

>  <fragmenstein_outcome>  (194) 
too moved

>  <fragmenstein_mode>  (194) 
expansion

>  <fragmenstein_error>  (194) 


$$$$
C46125-P64
     RDKit          3D

 42 45  0  0  0  0  0  0  0  0999 V2000
  -11.0030  -24.7308   25.3115 C   0  0  0  0  0  0  0  0  0  0  0  0
  -12.1299  -24.1163   26.0702 C   0  0  0  0  0  0  0  0  0  0  0  0
  -13.3565  -24.8623   25.9384 N   0  0  0  0  0  0  0  0  0  0  0  0
  -14.5411  -24.6002   25.1659 C   0  0  0  0  0  0  0  0  0  0  0  0
  -14.8454  -23.6526   24.4929 O   0  0  0  0  0  0  0  0  0  0  0  0
  -15.5234  -25.7632   25.1811 C   0  0  0  0  0  0  0  0  0  0  0  0
  -15.6319  -26.5039   26.4625 C   0  0  0  0  0  0  0  0  0  0  0  0
  -16.6066  -26.3963   27.4435 C   0  0  0  0  0  0  0  0  0  0  0  0
  -16.2964  -27.3666   28.3457 N   0  0  0  0  0  0  0  0  0  0  0  0
  -16.8073  -27.8516   29.5258 C   0  0  0  0  0  0  0  0  0  0  0  0
  -16.1182  -28.9233   29.9566 C   0  0  0  0  0  0  0  0  0  0  0  0
  -14.7960  -29.3816   28.8629 S   0  0  0  0  0  0  0  0  0  0  0  0
  -15.2106  -28.0254   27.8620 C   0  0  0  0  0  0  0  0  0  0  0  0
  -14.7246  -27.5077   26.7690 N   0  0  0  0  0  0  0  0  0  0  0  0
  -11.6765  -23.8908   27.4884 C   0  0  0  0  0  0  0  0  0  0  0  0
  -11.2220  -24.8730   28.3625 C   0  0  0  0  0  0  0  0  0  0  0  0
  -11.0357  -24.5646   29.7153 C   0  0  0  0  0  0  0  0  0  0  0  0
  -11.4408  -23.3092   30.1684 C   0  0  0  0  0  0  0  0  0  0  0  0
  -11.7540  -23.0432   31.5098 N   0  0  0  0  0  0  0  0  0  0  0  0
  -11.3941  -23.7018   32.6430 C   0  0  0  0  0  0  0  0  0  0  0  0
  -12.1710  -23.1223   33.6233 C   0  0  0  0  0  0  0  0  0  0  0  0
  -12.9355  -22.0944   33.1723 N   0  0  0  0  0  0  0  0  0  0  0  0
  -12.7524  -22.1741   31.8875 C   0  0  0  0  0  0  0  0  0  0  0  0
  -11.5968  -22.2775   29.2650 C   0  0  0  0  0  0  0  0  0  0  0  0
  -11.6056  -22.5811   27.9308 C   0  0  0  0  0  0  0  0  0  0  0  0
  -10.8814  -24.2460   24.3461 H   0  0  0  0  0  0  0  0  0  0  0  0
  -11.1054  -25.8131   25.1886 H   0  0  0  0  0  0  0  0  0  0  0  0
  -10.0912  -24.5033   25.8528 H   0  0  0  0  0  0  0  0  0  0  0  0
  -12.3273  -23.1580   25.5853 H   0  0  0  0  0  0  0  0  0  0  0  0
  -13.4077  -25.8077   26.3142 H   0  0  0  0  0  0  0  0  0  0  0  0
  -16.5136  -25.3652   24.9233 H   0  0  0  0  0  0  0  0  0  0  0  0
  -15.2386  -26.4393   24.3694 H   0  0  0  0  0  0  0  0  0  0  0  0
  -17.4614  -25.7461   27.5591 H   0  0  0  0  0  0  0  0  0  0  0  0
  -17.6517  -27.3781   30.0003 H   0  0  0  0  0  0  0  0  0  0  0  0
  -16.3173  -29.4737   30.8666 H   0  0  0  0  0  0  0  0  0  0  0  0
  -11.0834  -25.8981   28.0273 H   0  0  0  0  0  0  0  0  0  0  0  0
  -10.7634  -25.3582   30.4067 H   0  0  0  0  0  0  0  0  0  0  0  0
  -10.6825  -24.5143   32.6642 H   0  0  0  0  0  0  0  0  0  0  0  0
  -12.1837  -23.3744   34.6611 H   0  0  0  0  0  0  0  0  0  0  0  0
  -13.4060  -21.7383   31.1639 H   0  0  0  0  0  0  0  0  0  0  0  0
  -11.6793  -21.2430   29.5734 H   0  0  0  0  0  0  0  0  0  0  0  0
  -11.6045  -21.7739   27.2156 H   0  0  0  0  0  0  0  0  0  0  0  0
  1  2  1  0
  2  3  1  0
  3  4  1  0
  4  5  2  0
  4  6  1  0
  6  7  1  0
  7  8  2  0
  8  9  1  0
  9 10  1  0
 10 11  2  0
 11 12  1  0
 12 13  1  0
 13 14  2  0
  2 15  1  0
 15 16  2  0
 16 17  1  0
 17 18  2  0
 18 19  1  0
 19 20  1  0
 20 21  2  0
 21 22  1  0
 22 23  2  0
 18 24  1  0
 24 25  2  0
 14  7  1  0
 25 15  1  0
 13  9  1  0
 23 19  1  0
  1 26  1  0
  1 27  1  0
  1 28  1  0
  2 29  1  0
  3 30  1  0
  6 31  1  0
  6 32  1  0
  8 33  1  0
 10 34  1  0
 11 35  1  0
 16 36  1  0
 17 37  1  0
 20 38  1  0
 21 39  1  0
 23 40  1  0
 24 41  1  0
 25 42  1  0
M  END
>  <Energy>  (195) 
92.642560475140584

>  <compound_id>  (195) 
46125

>  <target_id>  (195) 
1

>  <reference_id>  (195) 
64

>  <inspiration_ids>  (195) 
[64, 52]

>  <energy_score>  (195) 
-18.614522533621084

>  <distance_score>  (195) 
3.4054369442732937

>  <path>  (195) 
/opt/xchem-fragalysis-2/maxwin/BulkDock/SCRATCH/511022/C46125-P64/C46125-P64.minimised.mol

>  <scratch_subdir>  (195) 
/opt/xchem-fragalysis-2/maxwin/BulkDock/SCRATCH/511022/C46125-P64

>  <fragmenstein_runtime>  (195) 
17.34628391265869

>  <fragmenstein_outcome>  (195) 
too moved

>  <fragmenstein_mode>  (195) 
expansion

>  <fragmenstein_error>  (195) 


$$$$
C46125-P52
     RDKit          3D

 42 45  0  0  0  0  0  0  0  0999 V2000
  -12.0176  -22.2068   24.7618 C   0  0  0  0  0  0  0  0  0  0  0  0
  -12.3323  -22.9780   26.0164 C   0  0  0  0  0  0  0  0  0  0  0  0
  -11.4959  -24.0526   26.3767 N   0  0  0  0  0  0  0  0  0  0  0  0
  -11.6376  -25.5416   26.1221 C   0  0  0  0  0  0  0  0  0  0  0  0
  -12.4245  -26.1269   25.5068 O   0  0  0  0  0  0  0  0  0  0  0  0
  -10.5053  -26.0868   26.9932 C   0  0  0  0  0  0  0  0  0  0  0  0
  -11.2460  -26.7586   28.0943 C   0  0  0  0  0  0  0  0  0  0  0  0
  -11.3782  -26.3787   29.4213 C   0  0  0  0  0  0  0  0  0  0  0  0
  -12.2010  -27.3262   29.9392 N   0  0  0  0  0  0  0  0  0  0  0  0
  -12.6395  -27.7039   31.1856 C   0  0  0  0  0  0  0  0  0  0  0  0
  -13.4242  -28.7938   31.1358 C   0  0  0  0  0  0  0  0  0  0  0  0
  -13.6337  -29.4074   29.4895 S   0  0  0  0  0  0  0  0  0  0  0  0
  -12.5867  -28.1438   28.9296 C   0  0  0  0  0  0  0  0  0  0  0  0
  -11.9755  -27.8956   27.8190 N   0  0  0  0  0  0  0  0  0  0  0  0
  -12.2819  -22.4579   27.4622 C   0  0  0  0  0  0  0  0  0  0  0  0
  -12.7423  -23.3600   28.4601 C   0  0  0  0  0  0  0  0  0  0  0  0
  -12.4130  -23.1990   29.7834 C   0  0  0  0  0  0  0  0  0  0  0  0
  -11.7295  -22.0732   30.1972 C   0  0  0  0  0  0  0  0  0  0  0  0
  -11.5040  -21.9117   31.5767 N   0  0  0  0  0  0  0  0  0  0  0  0
  -11.3032  -20.7571   32.2759 C   0  0  0  0  0  0  0  0  0  0  0  0
  -11.4837  -21.1020   33.5955 C   0  0  0  0  0  0  0  0  0  0  0  0
  -11.5222  -22.4503   33.7411 N   0  0  0  0  0  0  0  0  0  0  0  0
  -11.4951  -22.9069   32.5162 C   0  0  0  0  0  0  0  0  0  0  0  0
  -11.3235  -21.1390   29.2535 C   0  0  0  0  0  0  0  0  0  0  0  0
  -11.5378  -21.3826   27.8914 C   0  0  0  0  0  0  0  0  0  0  0  0
  -12.8077  -22.3745   24.0188 H   0  0  0  0  0  0  0  0  0  0  0  0
  -11.0915  -22.5434   24.2912 H   0  0  0  0  0  0  0  0  0  0  0  0
  -11.9988  -21.1273   24.9085 H   0  0  0  0  0  0  0  0  0  0  0  0
  -13.3275  -23.4113   25.8529 H   0  0  0  0  0  0  0  0  0  0  0  0
  -10.7396  -23.8928   27.0285 H   0  0  0  0  0  0  0  0  0  0  0  0
   -9.7428  -26.6428   26.4818 H   0  0  0  0  0  0  0  0  0  0  0  0
   -9.9304  -25.3269   27.5288 H   0  0  0  0  0  0  0  0  0  0  0  0
  -10.9207  -25.5964   30.0082 H   0  0  0  0  0  0  0  0  0  0  0  0
  -12.2985  -27.1883   32.0622 H   0  0  0  0  0  0  0  0  0  0  0  0
  -13.8628  -29.3002   31.9862 H   0  0  0  0  0  0  0  0  0  0  0  0
  -13.2940  -24.2566   28.1673 H   0  0  0  0  0  0  0  0  0  0  0  0
  -12.7168  -23.9613   30.4743 H   0  0  0  0  0  0  0  0  0  0  0  0
  -11.1724  -19.7969   31.8127 H   0  0  0  0  0  0  0  0  0  0  0  0
  -11.5576  -20.4470   34.4532 H   0  0  0  0  0  0  0  0  0  0  0  0
  -11.4577  -23.9500   32.2537 H   0  0  0  0  0  0  0  0  0  0  0  0
  -10.7662  -20.2562   29.5427 H   0  0  0  0  0  0  0  0  0  0  0  0
  -11.1040  -20.7428   27.1464 H   0  0  0  0  0  0  0  0  0  0  0  0
  1  2  1  0
  2  3  1  0
  3  4  1  0
  4  5  2  0
  4  6  1  0
  6  7  1  0
  7  8  2  0
  8  9  1  0
  9 10  1  0
 10 11  2  0
 11 12  1  0
 12 13  1  0
 13 14  2  0
  2 15  1  0
 15 16  2  0
 16 17  1  0
 17 18  2  0
 18 19  1  0
 19 20  1  0
 20 21  2  0
 21 22  1  0
 22 23  2  0
 18 24  1  0
 24 25  2  0
 14  7  1  0
 25 15  1  0
 13  9  1  0
 23 19  1  0
  1 26  1  0
  1 27  1  0
  1 28  1  0
  2 29  1  0
  3 30  1  0
  6 31  1  0
  6 32  1  0
  8 33  1  0
 10 34  1  0
 11 35  1  0
 16 36  1  0
 17 37  1  0
 20 38  1  0
 21 39  1  0
 23 40  1  0
 24 41  1  0
 25 42  1  0
M  END
>  <Energy>  (196) 
133.88798784865986

>  <compound_id>  (196) 
46125

>  <target_id>  (196) 
1

>  <reference_id>  (196) 
52

>  <inspiration_ids>  (196) 
[64, 52]

>  <energy_score>  (196) 
16.0053387931398

>  <distance_score>  (196) 
2.361855713073637

>  <path>  (196) 
/opt/xchem-fragalysis-2/maxwin/BulkDock/SCRATCH/511022/C46125-P52/C46125-P52.minimised.mol

>  <scratch_subdir>  (196) 
/opt/xchem-fragalysis-2/maxwin/BulkDock/SCRATCH/511022/C46125-P52

>  <fragmenstein_runtime>  (196) 
8.967507123947144

>  <fragmenstein_outcome>  (196) 
too moved

>  <fragmenstein_mode>  (196) 
expansion

>  <fragmenstein_error>  (196) 


$$$$
C46126-P64
     RDKit          3D

 42 44  0  0  0  0  0  0  0  0999 V2000
  -16.2049  -23.0422   23.7606 O   0  0  0  0  0  0  0  0  0  0  0  0
  -15.6355  -24.2696   24.6310 C   0  0  0  0  0  0  0  0  0  0  0  0
  -16.5402  -25.2581   25.2212 C   0  0  0  0  0  0  0  0  0  0  0  0
  -16.1740  -25.3814   26.6995 C   0  0  0  0  0  0  0  0  0  0  0  0
  -14.4987  -25.9951   27.1892 S   0  0  0  0  0  0  0  0  0  0  0  0
  -13.2990  -24.5684   27.3654 C   0  0  0  0  0  0  0  0  0  0  0  0
  -12.4384  -24.0592   28.5326 C   0  0  0  0  0  0  0  0  0  0  0  0
  -11.2869  -24.6479   29.0431 C   0  0  0  0  0  0  0  0  0  0  0  0
  -11.1195  -24.1221   30.2819 N   0  0  0  0  0  0  0  0  0  0  0  0
  -10.4194  -24.6773   31.3405 C   0  0  0  0  0  0  0  0  0  0  0  0
  -10.6400  -24.1896   32.5630 C   0  0  0  0  0  0  0  0  0  0  0  0
  -11.5597  -23.0730   32.7091 C   0  0  0  0  0  0  0  0  0  0  0  0
  -12.1141  -22.4518   31.6516 C   0  0  0  0  0  0  0  0  0  0  0  0
  -11.9555  -23.0176   30.3542 C   0  0  0  0  0  0  0  0  0  0  0  0
  -12.6994  -22.9167   29.2591 N   0  0  0  0  0  0  0  0  0  0  0  0
  -14.5728  -24.1172   24.5816 N   0  0  0  0  0  0  0  0  0  0  0  0
  -13.4989  -23.1557   24.0881 C   0  0  0  0  0  0  0  0  0  0  0  0
  -12.0062  -23.3512   24.6532 C   0  0  0  0  0  0  0  0  0  0  0  0
  -11.4723  -24.6411   25.1619 N   0  0  0  0  0  0  0  0  0  0  0  0
  -11.8935  -25.9498   25.0083 C   0  0  0  0  0  0  0  0  0  0  0  0
  -11.1176  -26.7308   25.8177 C   0  0  0  0  0  0  0  0  0  0  0  0
  -10.3716  -25.9441   26.6154 N   0  0  0  0  0  0  0  0  0  0  0  0
  -10.5770  -24.7108   26.1957 C   0  0  0  0  0  0  0  0  0  0  0  0
  -16.4299  -26.2144   24.7003 H   0  0  0  0  0  0  0  0  0  0  0  0
  -17.5740  -24.9171   25.1109 H   0  0  0  0  0  0  0  0  0  0  0  0
  -16.8613  -26.1201   27.1297 H   0  0  0  0  0  0  0  0  0  0  0  0
  -16.4374  -24.4499   27.1725 H   0  0  0  0  0  0  0  0  0  0  0  0
  -13.3682  -23.8263   26.5978 H   0  0  0  0  0  0  0  0  0  0  0  0
  -12.5763  -25.2764   27.0589 H   0  0  0  0  0  0  0  0  0  0  0  0
  -10.7662  -25.5576   28.7881 H   0  0  0  0  0  0  0  0  0  0  0  0
   -9.8132  -25.5557   31.1566 H   0  0  0  0  0  0  0  0  0  0  0  0
  -10.2078  -24.6978   33.4139 H   0  0  0  0  0  0  0  0  0  0  0  0
  -11.8710  -22.7889   33.7084 H   0  0  0  0  0  0  0  0  0  0  0  0
  -12.8647  -21.6969   31.8114 H   0  0  0  0  0  0  0  0  0  0  0  0
  -13.6454  -24.3605   24.7252 H   0  0  0  0  0  0  0  0  0  0  0  0
  -13.5210  -23.1839   22.9956 H   0  0  0  0  0  0  0  0  0  0  0  0
  -13.8484  -22.1401   24.2937 H   0  0  0  0  0  0  0  0  0  0  0  0
  -11.9502  -22.6987   25.5194 H   0  0  0  0  0  0  0  0  0  0  0  0
  -11.3074  -23.0106   23.8828 H   0  0  0  0  0  0  0  0  0  0  0  0
  -12.7466  -26.2858   24.4454 H   0  0  0  0  0  0  0  0  0  0  0  0
  -11.1494  -27.7977   25.9275 H   0  0  0  0  0  0  0  0  0  0  0  0
  -10.1622  -23.8516   26.6914 H   0  0  0  0  0  0  0  0  0  0  0  0
  1  2  2  0
  2  3  1  0
  3  4  1  0
  4  5  1  0
  5  6  1  0
  6  7  1  0
  7  8  2  0
  8  9  1  0
  9 10  1  0
 10 11  2  0
 11 12  1  0
 12 13  2  0
 13 14  1  0
 14 15  2  0
  2 16  1  0
 16 17  1  0
 17 18  1  0
 18 19  1  0
 19 20  1  0
 20 21  2  0
 21 22  1  0
 22 23  2  0
 15  7  1  0
 23 19  1  0
 14  9  1  0
  3 24  1  0
  3 25  1  0
  4 26  1  0
  4 27  1  0
  6 28  1  0
  6 29  1  0
  8 30  1  0
 10 31  1  0
 11 32  1  0
 12 33  1  0
 13 34  1  0
 16 35  1  0
 17 36  1  0
 17 37  1  0
 18 38  1  0
 18 39  1  0
 20 40  1  0
 21 41  1  0
 23 42  1  0
M  END
>  <Energy>  (197) 
338.56709952266613

>  <compound_id>  (197) 
46126

>  <target_id>  (197) 
1

>  <reference_id>  (197) 
64

>  <inspiration_ids>  (197) 
[64, 52]

>  <energy_score>  (197) 
279.61374018516324

>  <distance_score>  (197) 
3.5337146027252286

>  <path>  (197) 
/opt/xchem-fragalysis-2/maxwin/BulkDock/SCRATCH/511022/C46126-P64/C46126-P64.minimised.mol

>  <scratch_subdir>  (197) 
/opt/xchem-fragalysis-2/maxwin/BulkDock/SCRATCH/511022/C46126-P64

>  <fragmenstein_runtime>  (197) 
10.163851022720337

>  <fragmenstein_outcome>  (197) 
too moved

>  <fragmenstein_mode>  (197) 
expansion

>  <fragmenstein_error>  (197) 


$$$$
C46126-P52
     RDKit          3D

 42 44  0  0  0  0  0  0  0  0999 V2000
  -16.2178  -24.7327   25.0086 O   0  0  0  0  0  0  0  0  0  0  0  0
  -15.2889  -24.9064   25.6875 C   0  0  0  0  0  0  0  0  0  0  0  0
  -15.2255  -26.0340   26.7273 C   0  0  0  0  0  0  0  0  0  0  0  0
  -13.8631  -26.4322   27.3018 C   0  0  0  0  0  0  0  0  0  0  0  0
  -13.3586  -25.8378   28.9430 S   0  0  0  0  0  0  0  0  0  0  0  0
  -13.1211  -24.0418   28.9353 C   0  0  0  0  0  0  0  0  0  0  0  0
  -12.2994  -23.5866   30.0699 C   0  0  0  0  0  0  0  0  0  0  0  0
  -12.2707  -22.3631   30.7046 C   0  0  0  0  0  0  0  0  0  0  0  0
  -11.3656  -22.5176   31.7174 N   0  0  0  0  0  0  0  0  0  0  0  0
  -10.8130  -21.5739   32.5535 C   0  0  0  0  0  0  0  0  0  0  0  0
   -9.7731  -21.9651   33.2972 C   0  0  0  0  0  0  0  0  0  0  0  0
   -9.3598  -23.3435   33.3550 C   0  0  0  0  0  0  0  0  0  0  0  0
   -9.9087  -24.2572   32.5527 C   0  0  0  0  0  0  0  0  0  0  0  0
  -10.9156  -23.8274   31.6593 C   0  0  0  0  0  0  0  0  0  0  0  0
  -11.4815  -24.4838   30.6932 N   0  0  0  0  0  0  0  0  0  0  0  0
  -13.9235  -24.2077   25.7023 N   0  0  0  0  0  0  0  0  0  0  0  0
  -13.4444  -23.0895   24.9530 C   0  0  0  0  0  0  0  0  0  0  0  0
  -12.0027  -22.6725   25.3363 C   0  0  0  0  0  0  0  0  0  0  0  0
  -11.2092  -23.5836   26.1646 N   0  0  0  0  0  0  0  0  0  0  0  0
  -10.5790  -23.2507   27.3402 C   0  0  0  0  0  0  0  0  0  0  0  0
  -10.2007  -24.4435   27.9163 C   0  0  0  0  0  0  0  0  0  0  0  0
  -10.5591  -25.4903   27.1177 N   0  0  0  0  0  0  0  0  0  0  0  0
  -11.0930  -24.9406   26.0534 C   0  0  0  0  0  0  0  0  0  0  0  0
  -15.9605  -25.8579   27.5134 H   0  0  0  0  0  0  0  0  0  0  0  0
  -15.5925  -26.9126   26.1756 H   0  0  0  0  0  0  0  0  0  0  0  0
  -13.9610  -27.5094   27.5003 H   0  0  0  0  0  0  0  0  0  0  0  0
  -13.0572  -26.4227   26.5715 H   0  0  0  0  0  0  0  0  0  0  0  0
  -14.0855  -23.6532   29.1502 H   0  0  0  0  0  0  0  0  0  0  0  0
  -12.8199  -23.6065   28.0056 H   0  0  0  0  0  0  0  0  0  0  0  0
  -12.7892  -21.4334   30.5411 H   0  0  0  0  0  0  0  0  0  0  0  0
  -11.1438  -20.5482   32.4697 H   0  0  0  0  0  0  0  0  0  0  0  0
   -9.1342  -21.2634   33.7927 H   0  0  0  0  0  0  0  0  0  0  0  0
   -8.5766  -23.6017   34.0518 H   0  0  0  0  0  0  0  0  0  0  0  0
   -9.5849  -25.2914   32.5516 H   0  0  0  0  0  0  0  0  0  0  0  0
  -13.3820  -24.5491   26.4726 H   0  0  0  0  0  0  0  0  0  0  0  0
  -14.1853  -22.3076   25.0528 H   0  0  0  0  0  0  0  0  0  0  0  0
  -13.5300  -23.3168   23.8922 H   0  0  0  0  0  0  0  0  0  0  0  0
  -11.4260  -22.4837   24.4260 H   0  0  0  0  0  0  0  0  0  0  0  0
  -12.0432  -21.7352   25.8956 H   0  0  0  0  0  0  0  0  0  0  0  0
  -10.5114  -22.2349   27.7024 H   0  0  0  0  0  0  0  0  0  0  0  0
   -9.7009  -24.6042   28.8641 H   0  0  0  0  0  0  0  0  0  0  0  0
  -11.4743  -25.5167   25.2295 H   0  0  0  0  0  0  0  0  0  0  0  0
  1  2  2  0
  2  3  1  0
  3  4  1  0
  4  5  1  0
  5  6  1  0
  6  7  1  0
  7  8  2  0
  8  9  1  0
  9 10  1  0
 10 11  2  0
 11 12  1  0
 12 13  2  0
 13 14  1  0
 14 15  2  0
  2 16  1  0
 16 17  1  0
 17 18  1  0
 18 19  1  0
 19 20  1  0
 20 21  2  0
 21 22  1  0
 22 23  2  0
 15  7  1  0
 23 19  1  0
 14  9  1  0
  3 24  1  0
  3 25  1  0
  4 26  1  0
  4 27  1  0
  6 28  1  0
  6 29  1  0
  8 30  1  0
 10 31  1  0
 11 32  1  0
 12 33  1  0
 13 34  1  0
 16 35  1  0
 17 36  1  0
 17 37  1  0
 18 38  1  0
 18 39  1  0
 20 40  1  0
 21 41  1  0
 23 42  1  0
M  END
>  <Energy>  (198) 
96.269896063358473

>  <compound_id>  (198) 
46126

>  <target_id>  (198) 
1

>  <reference_id>  (198) 
52

>  <inspiration_ids>  (198) 
[64, 52]

>  <energy_score>  (198) 
50.454872768791574

>  <distance_score>  (198) 
2.615568562789705

>  <path>  (198) 
/opt/xchem-fragalysis-2/maxwin/BulkDock/SCRATCH/511022/C46126-P52/C46126-P52.minimised.mol

>  <scratch_subdir>  (198) 
/opt/xchem-fragalysis-2/maxwin/BulkDock/SCRATCH/511022/C46126-P52

>  <fragmenstein_runtime>  (198) 
6.656770467758179

>  <fragmenstein_outcome>  (198) 
too moved

>  <fragmenstein_mode>  (198) 
expansion

>  <fragmenstein_error>  (198) 


$$$$
C46127-P64
     RDKit          3D

 44 47  0  0  0  0  0  0  0  0999 V2000
  -13.2896  -24.3978   28.7395 O   0  0  0  0  0  0  0  0  0  0  0  0
  -12.9967  -23.7990   27.7811 C   0  0  0  0  0  0  0  0  0  0  0  0
  -12.1868  -22.6864   27.6269 N   0  0  0  0  0  0  0  0  0  0  0  0
  -11.5280  -21.8607   28.5972 C   0  0  0  0  0  0  0  0  0  0  0  0
  -11.5118  -22.5566   29.8862 C   0  0  0  0  0  0  0  0  0  0  0  0
  -11.9221  -22.1750   31.1371 C   0  0  0  0  0  0  0  0  0  0  0  0
  -11.6376  -23.2346   31.9359 N   0  0  0  0  0  0  0  0  0  0  0  0
  -12.0119  -23.4606   33.2384 C   0  0  0  0  0  0  0  0  0  0  0  0
  -11.5483  -24.5804   33.7858 C   0  0  0  0  0  0  0  0  0  0  0  0
  -10.6489  -25.4207   33.0790 C   0  0  0  0  0  0  0  0  0  0  0  0
  -10.2797  -25.2021   31.8172 C   0  0  0  0  0  0  0  0  0  0  0  0
  -10.8848  -24.1121   31.1775 C   0  0  0  0  0  0  0  0  0  0  0  0
  -10.9368  -23.7989   29.9153 N   0  0  0  0  0  0  0  0  0  0  0  0
  -13.6995  -24.3912   26.5634 C   0  0  0  0  0  0  0  0  0  0  0  0
  -13.9057  -24.0534   25.2402 C   0  0  0  0  0  0  0  0  0  0  0  0
  -13.9505  -25.3416   24.7212 N   0  0  0  0  0  0  0  0  0  0  0  0
  -13.3949  -26.1443   25.7290 C   0  0  0  0  0  0  0  0  0  0  0  0
  -11.9257  -26.0986   26.1934 C   0  0  0  0  0  0  0  0  0  0  0  0
  -11.0896  -27.2542   26.5561 C   0  0  0  0  0  0  0  0  0  0  0  0
  -10.0739  -26.7933   27.6493 C   0  0  0  0  0  0  0  0  0  0  0  0
   -9.9222  -25.3969   27.9408 N   0  0  0  0  0  0  0  0  0  0  0  0
  -10.1538  -24.5355   26.8231 C   0  0  0  0  0  0  0  0  0  0  0  0
  -11.0623  -24.9700   25.6844 C   0  0  0  0  0  0  0  0  0  0  0  0
  -14.2100  -25.6822   26.6616 N   0  0  0  0  0  0  0  0  0  0  0  0
  -12.2254  -22.3829   26.6572 H   0  0  0  0  0  0  0  0  0  0  0  0
  -12.0631  -20.9399   28.7617 H   0  0  0  0  0  0  0  0  0  0  0  0
  -10.5146  -21.6778   28.2629 H   0  0  0  0  0  0  0  0  0  0  0  0
  -12.3963  -21.3294   31.5718 H   0  0  0  0  0  0  0  0  0  0  0  0
  -12.6662  -22.7629   33.7362 H   0  0  0  0  0  0  0  0  0  0  0  0
  -11.7180  -24.9341   34.7679 H   0  0  0  0  0  0  0  0  0  0  0  0
  -10.4135  -26.3032   33.6272 H   0  0  0  0  0  0  0  0  0  0  0  0
   -9.6535  -25.8875   31.2631 H   0  0  0  0  0  0  0  0  0  0  0  0
  -13.8273  -23.1646   24.6322 H   0  0  0  0  0  0  0  0  0  0  0  0
  -14.2647  -25.6230   23.8047 H   0  0  0  0  0  0  0  0  0  0  0  0
  -12.1300  -25.8578   27.2392 H   0  0  0  0  0  0  0  0  0  0  0  0
  -10.5869  -27.6374   25.6618 H   0  0  0  0  0  0  0  0  0  0  0  0
  -11.7105  -28.0266   27.0116 H   0  0  0  0  0  0  0  0  0  0  0  0
  -10.3457  -27.2558   28.6019 H   0  0  0  0  0  0  0  0  0  0  0  0
   -9.0763  -27.1309   27.3812 H   0  0  0  0  0  0  0  0  0  0  0  0
  -10.5423  -25.1121   28.7218 H   0  0  0  0  0  0  0  0  0  0  0  0
   -9.2309  -24.2369   26.4021 H   0  0  0  0  0  0  0  0  0  0  0  0
  -10.4125  -23.5905   27.2319 H   0  0  0  0  0  0  0  0  0  0  0  0
  -11.5486  -24.0741   25.3055 H   0  0  0  0  0  0  0  0  0  0  0  0
  -10.5506  -25.3262   24.7970 H   0  0  0  0  0  0  0  0  0  0  0  0
  1  2  2  0
  2  3  1  0
  3  4  1  0
  4  5  1  0
  5  6  2  0
  6  7  1  0
  7  8  1  0
  8  9  2  0
  9 10  1  0
 10 11  2  0
 11 12  1  0
 12 13  2  0
  2 14  1  0
 14 15  2  0
 15 16  1  0
 16 17  1  0
 17 18  1  0
 18 19  1  0
 19 20  1  0
 20 21  1  0
 21 22  1  0
 22 23  1  0
 17 24  2  0
 13  5  1  0
 24 14  1  0
 12  7  1  0
 23 18  1  0
  3 25  1  0
  4 26  1  0
  4 27  1  0
  6 28  1  0
  8 29  1  0
  9 30  1  0
 10 31  1  0
 11 32  1  0
 15 33  1  0
 16 34  1  0
 18 35  1  0
 19 36  1  0
 19 37  1  0
 20 38  1  0
 20 39  1  0
 21 40  1  0
 22 41  1  0
 22 42  1  0
 23 43  1  0
 23 44  1  0
M  END
>  <Energy>  (199) 
219.87834124917856

>  <compound_id>  (199) 
46127

>  <target_id>  (199) 
1

>  <reference_id>  (199) 
64

>  <inspiration_ids>  (199) 
[64, 52]

>  <energy_score>  (199) 
142.3998728493466

>  <distance_score>  (199) 
2.1995897053206233

>  <path>  (199) 
/opt/xchem-fragalysis-2/maxwin/BulkDock/SCRATCH/511022/C46127-P64/C46127-P64.minimised.mol

>  <scratch_subdir>  (199) 
/opt/xchem-fragalysis-2/maxwin/BulkDock/SCRATCH/511022/C46127-P64

>  <fragmenstein_runtime>  (199) 
13.379662990570068

>  <fragmenstein_outcome>  (199) 
too moved

>  <fragmenstein_mode>  (199) 
expansion

>  <fragmenstein_error>  (199) 


$$$$
C46127-P52
     RDKit          3D

 44 47  0  0  0  0  0  0  0  0999 V2000
  -11.3079  -21.0683   26.8326 O   0  0  0  0  0  0  0  0  0  0  0  0
  -11.8412  -21.8951   27.4225 C   0  0  0  0  0  0  0  0  0  0  0  0
  -12.2770  -21.9411   28.8565 N   0  0  0  0  0  0  0  0  0  0  0  0
  -12.0721  -21.0198   29.9106 C   0  0  0  0  0  0  0  0  0  0  0  0
  -11.4068  -21.8588   30.8968 C   0  0  0  0  0  0  0  0  0  0  0  0
  -10.7365  -23.0385   30.6497 C   0  0  0  0  0  0  0  0  0  0  0  0
  -10.4958  -23.5413   31.8678 N   0  0  0  0  0  0  0  0  0  0  0  0
   -9.9061  -24.7483   32.1534 C   0  0  0  0  0  0  0  0  0  0  0  0
   -9.7039  -25.0578   33.4308 C   0  0  0  0  0  0  0  0  0  0  0  0
  -10.0411  -24.0721   34.4300 C   0  0  0  0  0  0  0  0  0  0  0  0
  -10.7199  -22.9511   34.1449 C   0  0  0  0  0  0  0  0  0  0  0  0
  -10.9593  -22.6303   32.7959 C   0  0  0  0  0  0  0  0  0  0  0  0
  -11.5169  -21.5940   32.2251 N   0  0  0  0  0  0  0  0  0  0  0  0
  -12.1406  -23.2020   26.8884 C   0  0  0  0  0  0  0  0  0  0  0  0
  -11.4895  -23.8873   25.8968 C   0  0  0  0  0  0  0  0  0  0  0  0
  -11.8894  -25.1876   26.0518 N   0  0  0  0  0  0  0  0  0  0  0  0
  -12.7522  -25.2248   27.1164 C   0  0  0  0  0  0  0  0  0  0  0  0
  -13.1235  -26.4262   27.8750 C   0  0  0  0  0  0  0  0  0  0  0  0
  -13.6439  -27.5630   27.0116 C   0  0  0  0  0  0  0  0  0  0  0  0
  -13.4253  -28.9038   27.6861 C   0  0  0  0  0  0  0  0  0  0  0  0
  -13.3778  -28.7535   29.1311 N   0  0  0  0  0  0  0  0  0  0  0  0
  -12.1948  -28.0255   29.5658 C   0  0  0  0  0  0  0  0  0  0  0  0
  -11.9120  -26.7976   28.7276 C   0  0  0  0  0  0  0  0  0  0  0  0
  -12.9681  -24.0365   27.5969 N   0  0  0  0  0  0  0  0  0  0  0  0
  -12.7978  -22.8012   29.0253 H   0  0  0  0  0  0  0  0  0  0  0  0
  -13.0178  -20.7159   30.3452 H   0  0  0  0  0  0  0  0  0  0  0  0
  -11.4654  -20.1776   29.5866 H   0  0  0  0  0  0  0  0  0  0  0  0
  -10.4729  -23.5504   29.7355 H   0  0  0  0  0  0  0  0  0  0  0  0
   -9.6300  -25.3943   31.3326 H   0  0  0  0  0  0  0  0  0  0  0  0
   -9.2670  -26.0035   33.7242 H   0  0  0  0  0  0  0  0  0  0  0  0
   -9.7635  -24.2832   35.4450 H   0  0  0  0  0  0  0  0  0  0  0  0
  -11.0647  -22.2651   34.9091 H   0  0  0  0  0  0  0  0  0  0  0  0
  -10.7078  -23.5813   25.2157 H   0  0  0  0  0  0  0  0  0  0  0  0
  -11.4923  -25.9976   25.5926 H   0  0  0  0  0  0  0  0  0  0  0  0
  -13.9345  -26.1429   28.5638 H   0  0  0  0  0  0  0  0  0  0  0  0
  -14.7151  -27.4046   26.8295 H   0  0  0  0  0  0  0  0  0  0  0  0
  -13.1738  -27.5759   26.0260 H   0  0  0  0  0  0  0  0  0  0  0  0
  -12.5107  -29.3919   27.3423 H   0  0  0  0  0  0  0  0  0  0  0  0
  -14.2471  -29.5763   27.4147 H   0  0  0  0  0  0  0  0  0  0  0  0
  -13.4034  -29.6702   29.5813 H   0  0  0  0  0  0  0  0  0  0  0  0
  -11.3403  -28.7048   29.5170 H   0  0  0  0  0  0  0  0  0  0  0  0
  -12.3279  -27.7405   30.6151 H   0  0  0  0  0  0  0  0  0  0  0  0
  -11.6197  -25.9670   29.3827 H   0  0  0  0  0  0  0  0  0  0  0  0
  -11.0513  -26.9924   28.0793 H   0  0  0  0  0  0  0  0  0  0  0  0
  1  2  2  0
  2  3  1  0
  3  4  1  0
  4  5  1  0
  5  6  2  0
  6  7  1  0
  7  8  1  0
  8  9  2  0
  9 10  1  0
 10 11  2  0
 11 12  1  0
 12 13  2  0
  2 14  1  0
 14 15  2  0
 15 16  1  0
 16 17  1  0
 17 18  1  0
 18 19  1  0
 19 20  1  0
 20 21  1  0
 21 22  1  0
 22 23  1  0
 17 24  2  0
 13  5  1  0
 24 14  1  0
 12  7  1  0
 23 18  1  0
  3 25  1  0
  4 26  1  0
  4 27  1  0
  6 28  1  0
  8 29  1  0
  9 30  1  0
 10 31  1  0
 11 32  1  0
 15 33  1  0
 16 34  1  0
 18 35  1  0
 19 36  1  0
 19 37  1  0
 20 38  1  0
 20 39  1  0
 21 40  1  0
 22 41  1  0
 22 42  1  0
 23 43  1  0
 23 44  1  0
M  END
>  <Energy>  (200) 
65.233230209044535

>  <compound_id>  (200) 
46127

>  <target_id>  (200) 
1

>  <reference_id>  (200) 
52

>  <inspiration_ids>  (200) 
[64, 52]

>  <energy_score>  (200) 
-9.849150478408944

>  <distance_score>  (200) 
2.816367389312475

>  <path>  (200) 
/opt/xchem-fragalysis-2/maxwin/BulkDock/SCRATCH/511022/C46127-P52/C46127-P52.minimised.mol

>  <scratch_subdir>  (200) 
/opt/xchem-fragalysis-2/maxwin/BulkDock/SCRATCH/511022/C46127-P52

>  <fragmenstein_runtime>  (200) 
6.14841365814209

>  <fragmenstein_outcome>  (200) 
too moved

>  <fragmenstein_mode>  (200) 
expansion

>  <fragmenstein_error>  (200) 


$$$$
C46132-P64
     RDKit          3D

 36 39  0  0  0  0  0  0  0  0999 V2000
  -13.3887  -23.8642   28.9471 O   0  0  0  0  0  0  0  0  0  0  0  0
  -12.4893  -23.4856   28.2936 C   0  0  0  0  0  0  0  0  0  0  0  0
  -11.5477  -22.4878   28.5352 N   0  0  0  0  0  0  0  0  0  0  0  0
  -11.4329  -21.5510   29.6023 C   0  0  0  0  0  0  0  0  0  0  0  0
  -11.9964  -22.0507   30.8908 C   0  0  0  0  0  0  0  0  0  0  0  0
  -11.5222  -22.7911   31.9536 C   0  0  0  0  0  0  0  0  0  0  0  0
  -12.6330  -23.0012   32.7561 N   0  0  0  0  0  0  0  0  0  0  0  0
  -12.9038  -23.9984   33.6653 C   0  0  0  0  0  0  0  0  0  0  0  0
  -14.1902  -24.1953   34.0370 C   0  0  0  0  0  0  0  0  0  0  0  0
  -15.2012  -23.2065   33.7358 C   0  0  0  0  0  0  0  0  0  0  0  0
  -14.9079  -22.1893   32.9168 C   0  0  0  0  0  0  0  0  0  0  0  0
  -13.6400  -22.1863   32.2891 C   0  0  0  0  0  0  0  0  0  0  0  0
  -13.3096  -21.7289   31.1253 N   0  0  0  0  0  0  0  0  0  0  0  0
  -12.3095  -24.2819   27.0909 C   0  0  0  0  0  0  0  0  0  0  0  0
  -11.8886  -24.0226   25.8110 C   0  0  0  0  0  0  0  0  0  0  0  0
  -11.3085  -25.2239   25.4488 N   0  0  0  0  0  0  0  0  0  0  0  0
  -11.3746  -25.9995   26.5846 C   0  0  0  0  0  0  0  0  0  0  0  0
  -10.1605  -26.4246   27.4674 C   0  0  0  0  0  0  0  0  0  0  0  0
  -10.2972  -26.4777   28.9721 C   0  0  0  0  0  0  0  0  0  0  0  0
   -9.5542  -25.3643   28.3542 C   0  0  0  0  0  0  0  0  0  0  0  0
  -12.4681  -25.6374   27.1926 N   0  0  0  0  0  0  0  0  0  0  0  0
  -10.9706  -22.3783   27.7166 H   0  0  0  0  0  0  0  0  0  0  0  0
  -10.4367  -21.1722   29.7060 H   0  0  0  0  0  0  0  0  0  0  0  0
  -12.0390  -20.7120   29.2846 H   0  0  0  0  0  0  0  0  0  0  0  0
  -10.5957  -23.3115   32.1379 H   0  0  0  0  0  0  0  0  0  0  0  0
  -12.0957  -24.6770   33.8970 H   0  0  0  0  0  0  0  0  0  0  0  0
  -14.4971  -25.0691   34.5994 H   0  0  0  0  0  0  0  0  0  0  0  0
  -16.1754  -23.3090   34.1973 H   0  0  0  0  0  0  0  0  0  0  0  0
  -15.6378  -21.4407   32.6448 H   0  0  0  0  0  0  0  0  0  0  0  0
  -11.8118  -23.1318   25.2140 H   0  0  0  0  0  0  0  0  0  0  0  0
  -10.6546  -25.3282   24.6894 H   0  0  0  0  0  0  0  0  0  0  0  0
   -9.4629  -27.0837   26.9857 H   0  0  0  0  0  0  0  0  0  0  0  0
   -9.7467  -27.2214   29.5268 H   0  0  0  0  0  0  0  0  0  0  0  0
  -11.1381  -26.1063   29.5207 H   0  0  0  0  0  0  0  0  0  0  0  0
   -9.9798  -24.3809   28.4107 H   0  0  0  0  0  0  0  0  0  0  0  0
   -8.5169  -25.3538   28.5924 H   0  0  0  0  0  0  0  0  0  0  0  0
  1  2  2  0
  2  3  1  0
  3  4  1  0
  4  5  1  0
  5  6  2  0
  6  7  1  0
  7  8  1  0
  8  9  2  0
  9 10  1  0
 10 11  2  0
 11 12  1  0
 12 13  2  0
  2 14  1  0
 14 15  2  0
 15 16  1  0
 16 17  1  0
 17 18  1  0
 18 19  1  0
 19 20  1  0
 17 21  2  0
 13  5  1  0
 21 14  1  0
 12  7  1  0
 20 18  1  0
  3 22  1  0
  4 23  1  0
  4 24  1  0
  6 25  1  0
  8 26  1  0
  9 27  1  0
 10 28  1  0
 11 29  1  0
 15 30  1  0
 16 31  1  0
 18 32  1  0
 19 33  1  0
 19 34  1  0
 20 35  1  0
 20 36  1  0
M  END
>  <Energy>  (201) 
125.72104384930527

>  <compound_id>  (201) 
46132

>  <target_id>  (201) 
1

>  <reference_id>  (201) 
64

>  <inspiration_ids>  (201) 
[64, 52]

>  <energy_score>  (201) 
42.93749031152734

>  <distance_score>  (201) 
3.172445800201099

>  <path>  (201) 
/opt/xchem-fragalysis-2/maxwin/BulkDock/SCRATCH/511022/C46132-P64/C46132-P64.minimised.mol

>  <scratch_subdir>  (201) 
/opt/xchem-fragalysis-2/maxwin/BulkDock/SCRATCH/511022/C46132-P64

>  <fragmenstein_runtime>  (201) 
7.639865398406982

>  <fragmenstein_outcome>  (201) 
too moved

>  <fragmenstein_mode>  (201) 
expansion

>  <fragmenstein_error>  (201) 


$$$$
C46132-P52
     RDKit          3D

 36 39  0  0  0  0  0  0  0  0999 V2000
  -13.2706  -23.5134   29.1116 O   0  0  0  0  0  0  0  0  0  0  0  0
  -12.5927  -23.1577   28.2374 C   0  0  0  0  0  0  0  0  0  0  0  0
  -11.6906  -21.9378   28.1212 N   0  0  0  0  0  0  0  0  0  0  0  0
  -11.3526  -20.9465   29.0778 C   0  0  0  0  0  0  0  0  0  0  0  0
  -11.3172  -21.6367   30.3835 C   0  0  0  0  0  0  0  0  0  0  0  0
  -11.8417  -21.2805   31.6039 C   0  0  0  0  0  0  0  0  0  0  0  0
  -11.3702  -22.2159   32.4794 N   0  0  0  0  0  0  0  0  0  0  0  0
  -11.4543  -22.2468   33.8547 C   0  0  0  0  0  0  0  0  0  0  0  0
  -10.7689  -23.1952   34.5042 C   0  0  0  0  0  0  0  0  0  0  0  0
  -10.0085  -24.1853   33.7680 C   0  0  0  0  0  0  0  0  0  0  0  0
   -9.9635  -24.1705   32.4292 C   0  0  0  0  0  0  0  0  0  0  0  0
  -10.6487  -23.1393   31.7384 C   0  0  0  0  0  0  0  0  0  0  0  0
  -10.6421  -22.8363   30.4693 N   0  0  0  0  0  0  0  0  0  0  0  0
  -12.4707  -24.0274   27.0699 C   0  0  0  0  0  0  0  0  0  0  0  0
  -11.3894  -24.2425   26.2362 C   0  0  0  0  0  0  0  0  0  0  0  0
  -11.4624  -25.6065   26.0119 N   0  0  0  0  0  0  0  0  0  0  0  0
  -12.5786  -26.0415   26.6719 C   0  0  0  0  0  0  0  0  0  0  0  0
  -12.6852  -27.3119   27.5428 C   0  0  0  0  0  0  0  0  0  0  0  0
  -11.7912  -27.3859   28.7578 C   0  0  0  0  0  0  0  0  0  0  0  0
  -13.2518  -27.1338   28.9333 C   0  0  0  0  0  0  0  0  0  0  0  0
  -13.3718  -25.0372   26.9073 N   0  0  0  0  0  0  0  0  0  0  0  0
  -11.1806  -21.9789   27.2517 H   0  0  0  0  0  0  0  0  0  0  0  0
  -10.3576  -20.5841   28.8363 H   0  0  0  0  0  0  0  0  0  0  0  0
  -12.0823  -20.1427   29.0734 H   0  0  0  0  0  0  0  0  0  0  0  0
  -12.4357  -20.4560   31.9515 H   0  0  0  0  0  0  0  0  0  0  0  0
  -12.0418  -21.4880   34.3556 H   0  0  0  0  0  0  0  0  0  0  0  0
  -10.7843  -23.2363   35.5828 H   0  0  0  0  0  0  0  0  0  0  0  0
   -9.4897  -24.9524   34.3274 H   0  0  0  0  0  0  0  0  0  0  0  0
   -9.3926  -24.8994   31.8674 H   0  0  0  0  0  0  0  0  0  0  0  0
  -10.4762  -23.6999   26.0498 H   0  0  0  0  0  0  0  0  0  0  0  0
  -10.6942  -26.2135   25.7636 H   0  0  0  0  0  0  0  0  0  0  0  0
  -12.9741  -28.2179   27.0271 H   0  0  0  0  0  0  0  0  0  0  0  0
  -11.1363  -26.5518   28.9854 H   0  0  0  0  0  0  0  0  0  0  0  0
  -11.4193  -28.3595   29.0496 H   0  0  0  0  0  0  0  0  0  0  0  0
  -13.5687  -26.1450   29.2446 H   0  0  0  0  0  0  0  0  0  0  0  0
  -13.8692  -27.9313   29.3293 H   0  0  0  0  0  0  0  0  0  0  0  0
  1  2  2  0
  2  3  1  0
  3  4  1  0
  4  5  1  0
  5  6  2  0
  6  7  1  0
  7  8  1  0
  8  9  2  0
  9 10  1  0
 10 11  2  0
 11 12  1  0
 12 13  2  0
  2 14  1  0
 14 15  2  0
 15 16  1  0
 16 17  1  0
 17 18  1  0
 18 19  1  0
 19 20  1  0
 17 21  2  0
 13  5  1  0
 21 14  1  0
 12  7  1  0
 20 18  1  0
  3 22  1  0
  4 23  1  0
  4 24  1  0
  6 25  1  0
  8 26  1  0
  9 27  1  0
 10 28  1  0
 11 29  1  0
 15 30  1  0
 16 31  1  0
 18 32  1  0
 19 33  1  0
 19 34  1  0
 20 35  1  0
 20 36  1  0
M  END
>  <Energy>  (202) 
99.453113834402288

>  <compound_id>  (202) 
46132

>  <target_id>  (202) 
1

>  <reference_id>  (202) 
52

>  <inspiration_ids>  (202) 
[64, 52]

>  <energy_score>  (202) 
29.18722642905584

>  <distance_score>  (202) 
2.2237411787808568

>  <path>  (202) 
/opt/xchem-fragalysis-2/maxwin/BulkDock/SCRATCH/511022/C46132-P52/C46132-P52.minimised.mol

>  <scratch_subdir>  (202) 
/opt/xchem-fragalysis-2/maxwin/BulkDock/SCRATCH/511022/C46132-P52

>  <fragmenstein_runtime>  (202) 
6.85704231262207

>  <fragmenstein_outcome>  (202) 
too moved

>  <fragmenstein_mode>  (202) 
expansion

>  <fragmenstein_error>  (202) 


$$$$
C46135-P64
     RDKit          3D

 32 34  0  0  0  0  0  0  0  0999 V2000
  -12.9511  -26.1348   25.7005 C   0  0  0  0  0  0  0  0  0  0  0  0
  -11.8841  -26.0908   26.7141 C   0  0  0  0  0  0  0  0  0  0  0  0
  -11.3757  -27.1982   27.3237 N   0  0  0  0  0  0  0  0  0  0  0  0
  -10.5323  -26.7844   28.3158 C   0  0  0  0  0  0  0  0  0  0  0  0
  -10.3938  -25.4954   28.3368 N   0  0  0  0  0  0  0  0  0  0  0  0
  -11.2623  -25.0583   27.3706 C   0  0  0  0  0  0  0  0  0  0  0  0
  -11.5618  -23.6667   27.2878 C   0  0  0  0  0  0  0  0  0  0  0  0
  -11.9090  -23.1594   26.2719 O   0  0  0  0  0  0  0  0  0  0  0  0
  -11.3911  -23.1288   28.5786 N   0  0  0  0  0  0  0  0  0  0  0  0
  -11.4885  -21.8060   29.0488 C   0  0  0  0  0  0  0  0  0  0  0  0
  -11.9316  -21.8443   30.4434 C   0  0  0  0  0  0  0  0  0  0  0  0
  -11.1480  -21.7782   31.5586 C   0  0  0  0  0  0  0  0  0  0  0  0
  -11.8567  -22.5865   32.3721 N   0  0  0  0  0  0  0  0  0  0  0  0
  -11.4544  -23.6838   33.0737 C   0  0  0  0  0  0  0  0  0  0  0  0
  -12.3914  -24.3158   33.7753 C   0  0  0  0  0  0  0  0  0  0  0  0
  -13.7600  -23.7776   33.8223 C   0  0  0  0  0  0  0  0  0  0  0  0
  -14.1284  -22.7288   33.0663 C   0  0  0  0  0  0  0  0  0  0  0  0
  -13.1717  -22.2710   32.1351 C   0  0  0  0  0  0  0  0  0  0  0  0
  -13.2460  -21.9889   30.8529 N   0  0  0  0  0  0  0  0  0  0  0  0
  -13.2944  -25.1360   25.4198 H   0  0  0  0  0  0  0  0  0  0  0  0
  -12.5917  -26.6377   24.8004 H   0  0  0  0  0  0  0  0  0  0  0  0
  -13.8211  -26.6763   26.0848 H   0  0  0  0  0  0  0  0  0  0  0  0
  -11.6518  -28.1457   27.1037 H   0  0  0  0  0  0  0  0  0  0  0  0
  -10.0469  -27.4211   29.0334 H   0  0  0  0  0  0  0  0  0  0  0  0
  -11.1599  -23.8844   29.2253 H   0  0  0  0  0  0  0  0  0  0  0  0
  -12.1287  -21.2459   28.4185 H   0  0  0  0  0  0  0  0  0  0  0  0
  -10.4977  -21.3870   28.9717 H   0  0  0  0  0  0  0  0  0  0  0  0
  -10.1292  -21.5412   31.7366 H   0  0  0  0  0  0  0  0  0  0  0  0
  -10.4365  -24.0287   32.9551 H   0  0  0  0  0  0  0  0  0  0  0  0
  -12.1381  -25.2324   34.2904 H   0  0  0  0  0  0  0  0  0  0  0  0
  -14.4916  -24.2923   34.4341 H   0  0  0  0  0  0  0  0  0  0  0  0
  -15.1482  -22.3772   33.0271 H   0  0  0  0  0  0  0  0  0  0  0  0
  1  2  1  0
  2  3  1  0
  3  4  1  0
  4  5  2  0
  5  6  1  0
  6  7  1  0
  7  8  2  0
  7  9  1  0
  9 10  1  0
 10 11  1  0
 11 12  2  0
 12 13  1  0
 13 14  1  0
 14 15  2  0
 15 16  1  0
 16 17  2  0
 17 18  1  0
 18 19  2  0
  6  2  2  0
 19 11  1  0
 18 13  1  0
  1 20  1  0
  1 21  1  0
  1 22  1  0
  3 23  1  0
  4 24  1  0
  9 25  1  0
 10 26  1  0
 10 27  1  0
 12 28  1  0
 14 29  1  0
 15 30  1  0
 16 31  1  0
 17 32  1  0
M  END
>  <Energy>  (203) 
73.920434005019956

>  <compound_id>  (203) 
46135

>  <target_id>  (203) 
1

>  <reference_id>  (203) 
64

>  <inspiration_ids>  (203) 
[64, 52]

>  <energy_score>  (203) 
5.8238794904486895

>  <distance_score>  (203) 
2.753184180634193

>  <path>  (203) 
/opt/xchem-fragalysis-2/maxwin/BulkDock/SCRATCH/511022/C46135-P64/C46135-P64.minimised.mol

>  <scratch_subdir>  (203) 
/opt/xchem-fragalysis-2/maxwin/BulkDock/SCRATCH/511022/C46135-P64

>  <fragmenstein_runtime>  (203) 
6.057312726974487

>  <fragmenstein_outcome>  (203) 
too moved

>  <fragmenstein_mode>  (203) 
expansion

>  <fragmenstein_error>  (203) 


$$$$
C46135-P52
     RDKit          3D

 32 34  0  0  0  0  0  0  0  0999 V2000
  -13.6839  -25.6628   26.2854 C   0  0  0  0  0  0  0  0  0  0  0  0
  -13.0759  -26.6254   27.2303 C   0  0  0  0  0  0  0  0  0  0  0  0
  -13.2409  -27.9782   27.1095 N   0  0  0  0  0  0  0  0  0  0  0  0
  -12.6358  -28.5868   28.1663 C   0  0  0  0  0  0  0  0  0  0  0  0
  -12.0860  -27.7189   28.9662 N   0  0  0  0  0  0  0  0  0  0  0  0
  -12.3758  -26.4846   28.4180 C   0  0  0  0  0  0  0  0  0  0  0  0
  -12.0731  -25.2553   29.1327 C   0  0  0  0  0  0  0  0  0  0  0  0
  -12.2745  -25.2085   30.2803 O   0  0  0  0  0  0  0  0  0  0  0  0
  -11.5634  -24.1702   28.1616 N   0  0  0  0  0  0  0  0  0  0  0  0
  -11.1047  -22.8287   28.4151 C   0  0  0  0  0  0  0  0  0  0  0  0
  -11.1603  -22.5758   29.8668 C   0  0  0  0  0  0  0  0  0  0  0  0
  -12.0841  -21.8726   30.6009 C   0  0  0  0  0  0  0  0  0  0  0  0
  -11.7762  -22.1208   31.9101 N   0  0  0  0  0  0  0  0  0  0  0  0
  -12.4165  -21.6941   33.0560 C   0  0  0  0  0  0  0  0  0  0  0  0
  -11.9464  -22.0944   34.2445 C   0  0  0  0  0  0  0  0  0  0  0  0
  -10.7870  -22.9655   34.2983 C   0  0  0  0  0  0  0  0  0  0  0  0
  -10.1550  -23.3619   33.1812 C   0  0  0  0  0  0  0  0  0  0  0  0
  -10.6591  -22.9343   31.9219 C   0  0  0  0  0  0  0  0  0  0  0  0
  -10.2588  -23.1983   30.7032 N   0  0  0  0  0  0  0  0  0  0  0  0
  -12.9154  -25.2214   25.6462 H   0  0  0  0  0  0  0  0  0  0  0  0
  -14.4229  -26.1463   25.6381 H   0  0  0  0  0  0  0  0  0  0  0  0
  -14.1907  -24.8580   26.8248 H   0  0  0  0  0  0  0  0  0  0  0  0
  -13.7620  -28.4551   26.3900 H   0  0  0  0  0  0  0  0  0  0  0  0
  -12.6359  -29.6610   28.2996 H   0  0  0  0  0  0  0  0  0  0  0  0
  -11.4253  -24.5742   27.2477 H   0  0  0  0  0  0  0  0  0  0  0  0
  -10.0793  -22.7524   28.0440 H   0  0  0  0  0  0  0  0  0  0  0  0
  -11.7366  -22.1404   27.8470 H   0  0  0  0  0  0  0  0  0  0  0  0
  -12.9480  -21.2938   30.3432 H   0  0  0  0  0  0  0  0  0  0  0  0
  -13.3036  -21.0851   32.9488 H   0  0  0  0  0  0  0  0  0  0  0  0
  -12.4436  -21.8206   35.1640 H   0  0  0  0  0  0  0  0  0  0  0  0
  -10.4606  -23.3016   35.2733 H   0  0  0  0  0  0  0  0  0  0  0  0
   -9.2901  -24.0153   33.2021 H   0  0  0  0  0  0  0  0  0  0  0  0
  1  2  1  0
  2  3  1  0
  3  4  1  0
  4  5  2  0
  5  6  1  0
  6  7  1  0
  7  8  2  0
  7  9  1  0
  9 10  1  0
 10 11  1  0
 11 12  2  0
 12 13  1  0
 13 14  1  0
 14 15  2  0
 15 16  1  0
 16 17  2  0
 17 18  1  0
 18 19  2  0
  6  2  2  0
 19 11  1  0
 18 13  1  0
  1 20  1  0
  1 21  1  0
  1 22  1  0
  3 23  1  0
  4 24  1  0
  9 25  1  0
 10 26  1  0
 10 27  1  0
 12 28  1  0
 14 29  1  0
 15 30  1  0
 16 31  1  0
 17 32  1  0
M  END
>  <Energy>  (204) 
72.977236639087181

>  <compound_id>  (204) 
46135

>  <target_id>  (204) 
1

>  <reference_id>  (204) 
52

>  <inspiration_ids>  (204) 
[64, 52]

>  <energy_score>  (204) 
11.473984849151094

>  <distance_score>  (204) 
2.7281644633022837

>  <path>  (204) 
/opt/xchem-fragalysis-2/maxwin/BulkDock/SCRATCH/511022/C46135-P52/C46135-P52.minimised.mol

>  <scratch_subdir>  (204) 
/opt/xchem-fragalysis-2/maxwin/BulkDock/SCRATCH/511022/C46135-P52

>  <fragmenstein_runtime>  (204) 
4.683250665664673

>  <fragmenstein_outcome>  (204) 
too moved

>  <fragmenstein_mode>  (204) 
expansion

>  <fragmenstein_error>  (204) 


$$$$
C64900-P71
     RDKit          3D

 48 51  0  0  0  0  0  0  0  0999 V2000
    0.9635  -17.5585   20.5541 C   0  0  0  0  0  0  0  0  0  0  0  0
    0.2062  -17.0180   21.7098 C   0  0  0  0  0  0  0  0  0  0  0  0
    0.5551  -16.0504   22.6171 C   0  0  0  0  0  0  0  0  0  0  0  0
   -0.4161  -15.7358   23.5611 N   0  0  0  0  0  0  0  0  0  0  0  0
   -1.3822  -16.6438   23.5526 C   0  0  0  0  0  0  0  0  0  0  0  0
   -2.4461  -16.8457   24.7144 C   0  0  0  0  0  0  0  0  0  0  0  0
   -1.7341  -16.5646   26.0472 C   0  0  0  0  0  0  0  0  0  0  0  0
   -3.1284  -18.2636   24.7678 C   0  0  0  0  0  0  0  0  0  0  0  0
   -4.2286  -18.6130   25.7225 N   0  0  0  0  0  0  0  0  0  0  0  0
   -4.9985  -17.7894   26.6256 C   0  0  0  0  0  0  0  0  0  0  0  0
   -4.8985  -16.6273   26.8990 O   0  0  0  0  0  0  0  0  0  0  0  0
   -6.2436  -18.4939   27.2893 C   0  0  0  0  0  0  0  0  0  0  0  0
   -7.2808  -17.6365   27.6800 C   0  0  0  0  0  0  0  0  0  0  0  0
   -8.5386  -18.0841   28.1353 C   0  0  0  0  0  0  0  0  0  0  0  0
   -8.9767  -19.6164   28.2672 C   0  0  0  0  0  0  0  0  0  0  0  0
  -10.2423  -20.6958   29.0297 N   0  0  0  0  0  0  0  0  0  0  0  0
  -10.3362  -21.9080   28.4009 C   0  0  0  0  0  0  0  0  0  0  0  0
   -8.9730  -22.4477   28.1758 C   0  0  0  0  0  0  0  0  0  0  0  0
   -7.8951  -20.9120   27.6808 C   0  0  0  0  0  0  0  0  0  0  0  0
   -6.4734  -19.9166   27.4255 C   0  0  0  0  0  0  0  0  0  0  0  0
   -9.4097  -24.0574   28.3935 C   0  0  0  0  0  0  0  0  0  0  0  0
  -10.4806  -24.5075   27.3764 C   0  0  0  0  0  0  0  0  0  0  0  0
  -11.8054  -23.7752   27.5663 C   0  0  0  0  0  0  0  0  0  0  0  0
  -11.6723  -22.6048   28.5187 C   0  0  0  0  0  0  0  0  0  0  0  0
   -1.3568  -17.5973   22.1081 S   0  0  0  0  0  0  0  0  0  0  0  0
    0.4198  -17.3877   19.6193 H   0  0  0  0  0  0  0  0  0  0  0  0
    1.9411  -17.0740   20.4662 H   0  0  0  0  0  0  0  0  0  0  0  0
    1.1321  -18.6343   20.6680 H   0  0  0  0  0  0  0  0  0  0  0  0
    1.5059  -15.5388   22.6315 H   0  0  0  0  0  0  0  0  0  0  0  0
   -3.2264  -16.0899   24.5609 H   0  0  0  0  0  0  0  0  0  0  0  0
   -1.3385  -15.5428   26.0727 H   0  0  0  0  0  0  0  0  0  0  0  0
   -2.4003  -16.6745   26.9050 H   0  0  0  0  0  0  0  0  0  0  0  0
   -0.8910  -17.2496   26.1934 H   0  0  0  0  0  0  0  0  0  0  0  0
   -3.5743  -18.4686   23.7877 H   0  0  0  0  0  0  0  0  0  0  0  0
   -2.3600  -19.0307   24.9231 H   0  0  0  0  0  0  0  0  0  0  0  0
   -4.6455  -19.5319   25.6782 H   0  0  0  0  0  0  0  0  0  0  0  0
   -7.1367  -16.5569   27.6061 H   0  0  0  0  0  0  0  0  0  0  0  0
   -9.2874  -17.3230   28.3761 H   0  0  0  0  0  0  0  0  0  0  0  0
  -11.0693  -20.1870   29.2309 H   0  0  0  0  0  0  0  0  0  0  0  0
   -5.5317  -20.5092   27.3549 H   0  0  0  0  0  0  0  0  0  0  0  0
  -10.0069  -24.1497   29.3185 H   0  0  0  0  0  0  0  0  0  0  0  0
   -8.7212  -24.8220   28.7632 H   0  0  0  0  0  0  0  0  0  0  0  0
  -10.6417  -25.5889   27.4495 H   0  0  0  0  0  0  0  0  0  0  0  0
  -10.1724  -24.2848   26.3605 H   0  0  0  0  0  0  0  0  0  0  0  0
  -12.1620  -23.4273   26.5890 H   0  0  0  0  0  0  0  0  0  0  0  0
  -12.5719  -24.4653   27.9380 H   0  0  0  0  0  0  0  0  0  0  0  0
  -12.4787  -21.8986   28.3509 H   0  0  0  0  0  0  0  0  0  0  0  0
  -11.8037  -22.9510   29.5529 H   0  0  0  0  0  0  0  0  0  0  0  0
  1  2  1  0
  2  3  2  0
  3  4  1  0
  4  5  2  0
  5  6  1  0
  6  7  1  0
  6  8  1  0
  8  9  1  0
  9 10  1  0
 10 11  2  0
 10 12  1  0
 12 13  2  0
 13 14  1  0
 14 15  2  0
 15 16  1  0
 16 17  1  0
 17 18  2  0
 18 19  1  0
 19 20  2  0
 18 21  1  0
 21 22  1  0
 22 23  1  0
 23 24  1  0
  5 25  1  0
 25  2  1  0
 20 12  1  0
 19 15  1  0
 24 17  1  0
  1 26  1  0
  1 27  1  0
  1 28  1  0
  3 29  1  0
  6 30  1  0
  7 31  1  0
  7 32  1  0
  7 33  1  0
  8 34  1  0
  8 35  1  0
  9 36  1  0
 13 37  1  0
 14 38  1  0
 16 39  1  0
 20 40  1  0
 21 41  1  0
 21 42  1  0
 22 43  1  0
 22 44  1  0
 23 45  1  0
 23 46  1  0
 24 47  1  0
 24 48  1  0
M  END
>  <Energy>  (205) 
375.6765949286027

>  <compound_id>  (205) 
64900

>  <target_id>  (205) 
1

>  <reference_id>  (205) 
71

>  <inspiration_ids>  (205) 
[71, 39]

>  <energy_score>  (205) 
262.90248212581355

>  <distance_score>  (205) 
13.530046515565617

>  <path>  (205) 
/opt/xchem-fragalysis-2/maxwin/BulkDock/SCRATCH/511022/C64900-P71/C64900-P71.minimised.mol

>  <scratch_subdir>  (205) 
/opt/xchem-fragalysis-2/maxwin/BulkDock/SCRATCH/511022/C64900-P71

>  <fragmenstein_runtime>  (205) 
36.12705969810486

>  <fragmenstein_outcome>  (205) 
too moved

>  <fragmenstein_mode>  (205) 
expansion

>  <fragmenstein_error>  (205) 


$$$$
C64900-P39
     RDKit          3D

 48 51  0  0  0  0  0  0  0  0999 V2000
   -3.1949  -13.8823   16.9692 C   0  0  0  0  0  0  0  0  0  0  0  0
   -3.7574  -14.7564   18.0283 C   0  0  0  0  0  0  0  0  0  0  0  0
   -3.4245  -14.8619   19.3561 C   0  0  0  0  0  0  0  0  0  0  0  0
   -4.1597  -15.7885   20.0944 N   0  0  0  0  0  0  0  0  0  0  0  0
   -5.0628  -16.4137   19.3394 C   0  0  0  0  0  0  0  0  0  0  0  0
   -5.9381  -17.6890   19.8178 C   0  0  0  0  0  0  0  0  0  0  0  0
   -5.3429  -18.9441   19.1705 C   0  0  0  0  0  0  0  0  0  0  0  0
   -7.5146  -17.6569   19.6036 C   0  0  0  0  0  0  0  0  0  0  0  0
   -8.4094  -18.8204   20.0530 N   0  0  0  0  0  0  0  0  0  0  0  0
   -9.0242  -19.1131   21.3494 C   0  0  0  0  0  0  0  0  0  0  0  0
   -8.9156  -18.5555   22.4083 O   0  0  0  0  0  0  0  0  0  0  0  0
  -10.1139  -20.3184   21.4159 C   0  0  0  0  0  0  0  0  0  0  0  0
  -10.8417  -20.8787   20.3993 C   0  0  0  0  0  0  0  0  0  0  0  0
  -11.9369  -21.7606   20.6910 C   0  0  0  0  0  0  0  0  0  0  0  0
  -12.3443  -22.0948   22.0376 C   0  0  0  0  0  0  0  0  0  0  0  0
  -13.4095  -22.8037   22.5952 N   0  0  0  0  0  0  0  0  0  0  0  0
  -13.3751  -23.0704   23.9142 C   0  0  0  0  0  0  0  0  0  0  0  0
  -12.1605  -22.5940   24.2958 C   0  0  0  0  0  0  0  0  0  0  0  0
  -11.5991  -21.7458   23.1103 C   0  0  0  0  0  0  0  0  0  0  0  0
  -10.5308  -20.8136   22.6925 C   0  0  0  0  0  0  0  0  0  0  0  0
  -11.6715  -23.1304   25.6420 C   0  0  0  0  0  0  0  0  0  0  0  0
  -12.5263  -24.0902   26.4667 C   0  0  0  0  0  0  0  0  0  0  0  0
  -13.5443  -24.8719   25.6750 C   0  0  0  0  0  0  0  0  0  0  0  0
  -14.2738  -24.0356   24.6251 C   0  0  0  0  0  0  0  0  0  0  0  0
   -5.0412  -15.8526   17.6914 S   0  0  0  0  0  0  0  0  0  0  0  0
   -2.3980  -13.2464   17.3690 H   0  0  0  0  0  0  0  0  0  0  0  0
   -2.7697  -14.4806   16.1569 H   0  0  0  0  0  0  0  0  0  0  0  0
   -3.9679  -13.2281   16.5531 H   0  0  0  0  0  0  0  0  0  0  0  0
   -2.6628  -14.2854   19.8555 H   0  0  0  0  0  0  0  0  0  0  0  0
   -5.7680  -17.7613   20.9010 H   0  0  0  0  0  0  0  0  0  0  0  0
   -5.5180  -18.9574   18.0894 H   0  0  0  0  0  0  0  0  0  0  0  0
   -5.7833  -19.8508   19.5907 H   0  0  0  0  0  0  0  0  0  0  0  0
   -4.2608  -18.9958   19.3347 H   0  0  0  0  0  0  0  0  0  0  0  0
   -7.9026  -16.7763   20.1285 H   0  0  0  0  0  0  0  0  0  0  0  0
   -7.7312  -17.5272   18.5375 H   0  0  0  0  0  0  0  0  0  0  0  0
   -8.6609  -19.5489   19.3957 H   0  0  0  0  0  0  0  0  0  0  0  0
  -10.6468  -20.6267   19.3627 H   0  0  0  0  0  0  0  0  0  0  0  0
  -12.4683  -22.1809   19.8370 H   0  0  0  0  0  0  0  0  0  0  0  0
  -14.0832  -23.2824   22.0206 H   0  0  0  0  0  0  0  0  0  0  0  0
  -10.0646  -20.2481   23.4622 H   0  0  0  0  0  0  0  0  0  0  0  0
  -11.4994  -22.2954   26.3238 H   0  0  0  0  0  0  0  0  0  0  0  0
  -10.7799  -23.7302   25.4355 H   0  0  0  0  0  0  0  0  0  0  0  0
  -12.9923  -23.5325   27.2805 H   0  0  0  0  0  0  0  0  0  0  0  0
  -11.8669  -24.7935   26.9940 H   0  0  0  0  0  0  0  0  0  0  0  0
  -13.0233  -25.7032   25.1822 H   0  0  0  0  0  0  0  0  0  0  0  0
  -14.2701  -25.3483   26.3449 H   0  0  0  0  0  0  0  0  0  0  0  0
  -14.6493  -24.7971   23.9458 H   0  0  0  0  0  0  0  0  0  0  0  0
  -15.1400  -23.5108   25.0217 H   0  0  0  0  0  0  0  0  0  0  0  0
  1  2  1  0
  2  3  2  0
  3  4  1  0
  4  5  2  0
  5  6  1  0
  6  7  1  0
  6  8  1  0
  8  9  1  0
  9 10  1  0
 10 11  2  0
 10 12  1  0
 12 13  2  0
 13 14  1  0
 14 15  2  0
 15 16  1  0
 16 17  1  0
 17 18  2  0
 18 19  1  0
 19 20  2  0
 18 21  1  0
 21 22  1  0
 22 23  1  0
 23 24  1  0
  5 25  1  0
 25  2  1  0
 20 12  1  0
 19 15  1  0
 24 17  1  0
  1 26  1  0
  1 27  1  0
  1 28  1  0
  3 29  1  0
  6 30  1  0
  7 31  1  0
  7 32  1  0
  7 33  1  0
  8 34  1  0
  8 35  1  0
  9 36  1  0
 13 37  1  0
 14 38  1  0
 16 39  1  0
 20 40  1  0
 21 41  1  0
 21 42  1  0
 22 43  1  0
 22 44  1  0
 23 45  1  0
 23 46  1  0
 24 47  1  0
 24 48  1  0
M  END
>  <Energy>  (206) 
105.40932587516433

>  <compound_id>  (206) 
64900

>  <target_id>  (206) 
1

>  <reference_id>  (206) 
39

>  <inspiration_ids>  (206) 
[71, 39]

>  <energy_score>  (206) 
-7.364786927613352

>  <distance_score>  (206) 
14.805228217309542

>  <path>  (206) 
/opt/xchem-fragalysis-2/maxwin/BulkDock/SCRATCH/511022/C64900-P39/C64900-P39.minimised.mol

>  <scratch_subdir>  (206) 
/opt/xchem-fragalysis-2/maxwin/BulkDock/SCRATCH/511022/C64900-P39

>  <fragmenstein_runtime>  (206) 
43.70669174194336

>  <fragmenstein_outcome>  (206) 
too moved

>  <fragmenstein_mode>  (206) 
expansion

>  <fragmenstein_error>  (206) 


$$$$
C64900-P71
     RDKit          3D

 48 51  0  0  0  0  0  0  0  0999 V2000
    0.9635  -17.5585   20.5541 C   0  0  0  0  0  0  0  0  0  0  0  0
    0.2062  -17.0180   21.7098 C   0  0  0  0  0  0  0  0  0  0  0  0
    0.5551  -16.0504   22.6171 C   0  0  0  0  0  0  0  0  0  0  0  0
   -0.4161  -15.7358   23.5611 N   0  0  0  0  0  0  0  0  0  0  0  0
   -1.3822  -16.6438   23.5526 C   0  0  0  0  0  0  0  0  0  0  0  0
   -2.4461  -16.8457   24.7144 C   0  0  0  0  0  0  0  0  0  0  0  0
   -1.7341  -16.5646   26.0472 C   0  0  0  0  0  0  0  0  0  0  0  0
   -3.1284  -18.2636   24.7678 C   0  0  0  0  0  0  0  0  0  0  0  0
   -4.2286  -18.6130   25.7225 N   0  0  0  0  0  0  0  0  0  0  0  0
   -4.9985  -17.7894   26.6256 C   0  0  0  0  0  0  0  0  0  0  0  0
   -4.8985  -16.6273   26.8990 O   0  0  0  0  0  0  0  0  0  0  0  0
   -6.2436  -18.4939   27.2893 C   0  0  0  0  0  0  0  0  0  0  0  0
   -7.2808  -17.6365   27.6800 C   0  0  0  0  0  0  0  0  0  0  0  0
   -8.5386  -18.0841   28.1353 C   0  0  0  0  0  0  0  0  0  0  0  0
   -8.9767  -19.6164   28.2672 C   0  0  0  0  0  0  0  0  0  0  0  0
  -10.2423  -20.6958   29.0297 N   0  0  0  0  0  0  0  0  0  0  0  0
  -10.3362  -21.9080   28.4009 C   0  0  0  0  0  0  0  0  0  0  0  0
   -8.9730  -22.4477   28.1758 C   0  0  0  0  0  0  0  0  0  0  0  0
   -7.8951  -20.9120   27.6808 C   0  0  0  0  0  0  0  0  0  0  0  0
   -6.4734  -19.9166   27.4255 C   0  0  0  0  0  0  0  0  0  0  0  0
   -9.4097  -24.0574   28.3935 C   0  0  0  0  0  0  0  0  0  0  0  0
  -10.4806  -24.5075   27.3764 C   0  0  0  0  0  0  0  0  0  0  0  0
  -11.8054  -23.7752   27.5663 C   0  0  0  0  0  0  0  0  0  0  0  0
  -11.6723  -22.6048   28.5187 C   0  0  0  0  0  0  0  0  0  0  0  0
   -1.3568  -17.5973   22.1081 S   0  0  0  0  0  0  0  0  0  0  0  0
    0.4198  -17.3877   19.6193 H   0  0  0  0  0  0  0  0  0  0  0  0
    1.9411  -17.0740   20.4662 H   0  0  0  0  0  0  0  0  0  0  0  0
    1.1321  -18.6343   20.6680 H   0  0  0  0  0  0  0  0  0  0  0  0
    1.5059  -15.5388   22.6315 H   0  0  0  0  0  0  0  0  0  0  0  0
   -3.2264  -16.0899   24.5609 H   0  0  0  0  0  0  0  0  0  0  0  0
   -1.3385  -15.5428   26.0727 H   0  0  0  0  0  0  0  0  0  0  0  0
   -2.4003  -16.6745   26.9050 H   0  0  0  0  0  0  0  0  0  0  0  0
   -0.8910  -17.2496   26.1934 H   0  0  0  0  0  0  0  0  0  0  0  0
   -3.5743  -18.4686   23.7877 H   0  0  0  0  0  0  0  0  0  0  0  0
   -2.3600  -19.0307   24.9231 H   0  0  0  0  0  0  0  0  0  0  0  0
   -4.6455  -19.5319   25.6782 H   0  0  0  0  0  0  0  0  0  0  0  0
   -7.1367  -16.5569   27.6061 H   0  0  0  0  0  0  0  0  0  0  0  0
   -9.2874  -17.3230   28.3761 H   0  0  0  0  0  0  0  0  0  0  0  0
  -11.0693  -20.1870   29.2309 H   0  0  0  0  0  0  0  0  0  0  0  0
   -5.5317  -20.5092   27.3549 H   0  0  0  0  0  0  0  0  0  0  0  0
  -10.0069  -24.1497   29.3185 H   0  0  0  0  0  0  0  0  0  0  0  0
   -8.7212  -24.8220   28.7632 H   0  0  0  0  0  0  0  0  0  0  0  0
  -10.6417  -25.5889   27.4495 H   0  0  0  0  0  0  0  0  0  0  0  0
  -10.1724  -24.2848   26.3605 H   0  0  0  0  0  0  0  0  0  0  0  0
  -12.1620  -23.4273   26.5890 H   0  0  0  0  0  0  0  0  0  0  0  0
  -12.5719  -24.4653   27.9380 H   0  0  0  0  0  0  0  0  0  0  0  0
  -12.4787  -21.8986   28.3509 H   0  0  0  0  0  0  0  0  0  0  0  0
  -11.8037  -22.9510   29.5529 H   0  0  0  0  0  0  0  0  0  0  0  0
  1  2  1  0
  2  3  2  0
  3  4  1  0
  4  5  2  0
  5  6  1  0
  6  7  1  0
  6  8  1  0
  8  9  1  0
  9 10  1  0
 10 11  2  0
 10 12  1  0
 12 13  2  0
 13 14  1  0
 14 15  2  0
 15 16  1  0
 16 17  1  0
 17 18  2  0
 18 19  1  0
 19 20  2  0
 18 21  1  0
 21 22  1  0
 22 23  1  0
 23 24  1  0
  5 25  1  0
 25  2  1  0
 20 12  1  0
 19 15  1  0
 24 17  1  0
  1 26  1  0
  1 27  1  0
  1 28  1  0
  3 29  1  0
  6 30  1  0
  7 31  1  0
  7 32  1  0
  7 33  1  0
  8 34  1  0
  8 35  1  0
  9 36  1  0
 13 37  1  0
 14 38  1  0
 16 39  1  0
 20 40  1  0
 21 41  1  0
 21 42  1  0
 22 43  1  0
 22 44  1  0
 23 45  1  0
 23 46  1  0
 24 47  1  0
 24 48  1  0
M  END
>  <Energy>  (207) 
375.6765949286027

>  <compound_id>  (207) 
64900

>  <target_id>  (207) 
1

>  <reference_id>  (207) 
71

>  <inspiration_ids>  (207) 
[71, 39]

>  <energy_score>  (207) 
262.90248212581355

>  <distance_score>  (207) 
13.530046515565617

>  <path>  (207) 
/opt/xchem-fragalysis-2/maxwin/BulkDock/SCRATCH/511022/C64900-P71/C64900-P71.minimised.mol

>  <scratch_subdir>  (207) 
/opt/xchem-fragalysis-2/maxwin/BulkDock/SCRATCH/511022/C64900-P71

>  <fragmenstein_runtime>  (207) 
56.07222867012024

>  <fragmenstein_outcome>  (207) 
too moved

>  <fragmenstein_mode>  (207) 
expansion

>  <fragmenstein_error>  (207) 


$$$$
C64900-P39
     RDKit          3D

 48 51  0  0  0  0  0  0  0  0999 V2000
   -3.1949  -13.8823   16.9692 C   0  0  0  0  0  0  0  0  0  0  0  0
   -3.7574  -14.7564   18.0283 C   0  0  0  0  0  0  0  0  0  0  0  0
   -3.4245  -14.8619   19.3561 C   0  0  0  0  0  0  0  0  0  0  0  0
   -4.1597  -15.7885   20.0944 N   0  0  0  0  0  0  0  0  0  0  0  0
   -5.0628  -16.4137   19.3394 C   0  0  0  0  0  0  0  0  0  0  0  0
   -5.9381  -17.6890   19.8178 C   0  0  0  0  0  0  0  0  0  0  0  0
   -5.3429  -18.9441   19.1705 C   0  0  0  0  0  0  0  0  0  0  0  0
   -7.5146  -17.6569   19.6036 C   0  0  0  0  0  0  0  0  0  0  0  0
   -8.4094  -18.8204   20.0530 N   0  0  0  0  0  0  0  0  0  0  0  0
   -9.0242  -19.1131   21.3494 C   0  0  0  0  0  0  0  0  0  0  0  0
   -8.9156  -18.5555   22.4083 O   0  0  0  0  0  0  0  0  0  0  0  0
  -10.1139  -20.3184   21.4159 C   0  0  0  0  0  0  0  0  0  0  0  0
  -10.8417  -20.8787   20.3993 C   0  0  0  0  0  0  0  0  0  0  0  0
  -11.9369  -21.7606   20.6910 C   0  0  0  0  0  0  0  0  0  0  0  0
  -12.3443  -22.0948   22.0376 C   0  0  0  0  0  0  0  0  0  0  0  0
  -13.4095  -22.8037   22.5952 N   0  0  0  0  0  0  0  0  0  0  0  0
  -13.3751  -23.0704   23.9142 C   0  0  0  0  0  0  0  0  0  0  0  0
  -12.1605  -22.5940   24.2958 C   0  0  0  0  0  0  0  0  0  0  0  0
  -11.5991  -21.7458   23.1103 C   0  0  0  0  0  0  0  0  0  0  0  0
  -10.5308  -20.8136   22.6925 C   0  0  0  0  0  0  0  0  0  0  0  0
  -11.6715  -23.1304   25.6420 C   0  0  0  0  0  0  0  0  0  0  0  0
  -12.5263  -24.0902   26.4667 C   0  0  0  0  0  0  0  0  0  0  0  0
  -13.5443  -24.8719   25.6750 C   0  0  0  0  0  0  0  0  0  0  0  0
  -14.2738  -24.0356   24.6251 C   0  0  0  0  0  0  0  0  0  0  0  0
   -5.0412  -15.8526   17.6914 S   0  0  0  0  0  0  0  0  0  0  0  0
   -2.3980  -13.2464   17.3690 H   0  0  0  0  0  0  0  0  0  0  0  0
   -2.7697  -14.4806   16.1569 H   0  0  0  0  0  0  0  0  0  0  0  0
   -3.9679  -13.2281   16.5531 H   0  0  0  0  0  0  0  0  0  0  0  0
   -2.6628  -14.2854   19.8555 H   0  0  0  0  0  0  0  0  0  0  0  0
   -5.7680  -17.7613   20.9010 H   0  0  0  0  0  0  0  0  0  0  0  0
   -5.5180  -18.9574   18.0894 H   0  0  0  0  0  0  0  0  0  0  0  0
   -5.7833  -19.8508   19.5907 H   0  0  0  0  0  0  0  0  0  0  0  0
   -4.2608  -18.9958   19.3347 H   0  0  0  0  0  0  0  0  0  0  0  0
   -7.9026  -16.7763   20.1285 H   0  0  0  0  0  0  0  0  0  0  0  0
   -7.7312  -17.5272   18.5375 H   0  0  0  0  0  0  0  0  0  0  0  0
   -8.6609  -19.5489   19.3957 H   0  0  0  0  0  0  0  0  0  0  0  0
  -10.6468  -20.6267   19.3627 H   0  0  0  0  0  0  0  0  0  0  0  0
  -12.4683  -22.1809   19.8370 H   0  0  0  0  0  0  0  0  0  0  0  0
  -14.0832  -23.2824   22.0206 H   0  0  0  0  0  0  0  0  0  0  0  0
  -10.0646  -20.2481   23.4622 H   0  0  0  0  0  0  0  0  0  0  0  0
  -11.4994  -22.2954   26.3238 H   0  0  0  0  0  0  0  0  0  0  0  0
  -10.7799  -23.7302   25.4355 H   0  0  0  0  0  0  0  0  0  0  0  0
  -12.9923  -23.5325   27.2805 H   0  0  0  0  0  0  0  0  0  0  0  0
  -11.8669  -24.7935   26.9940 H   0  0  0  0  0  0  0  0  0  0  0  0
  -13.0233  -25.7032   25.1822 H   0  0  0  0  0  0  0  0  0  0  0  0
  -14.2701  -25.3483   26.3449 H   0  0  0  0  0  0  0  0  0  0  0  0
  -14.6493  -24.7971   23.9458 H   0  0  0  0  0  0  0  0  0  0  0  0
  -15.1400  -23.5108   25.0217 H   0  0  0  0  0  0  0  0  0  0  0  0
  1  2  1  0
  2  3  2  0
  3  4  1  0
  4  5  2  0
  5  6  1  0
  6  7  1  0
  6  8  1  0
  8  9  1  0
  9 10  1  0
 10 11  2  0
 10 12  1  0
 12 13  2  0
 13 14  1  0
 14 15  2  0
 15 16  1  0
 16 17  1  0
 17 18  2  0
 18 19  1  0
 19 20  2  0
 18 21  1  0
 21 22  1  0
 22 23  1  0
 23 24  1  0
  5 25  1  0
 25  2  1  0
 20 12  1  0
 19 15  1  0
 24 17  1  0
  1 26  1  0
  1 27  1  0
  1 28  1  0
  3 29  1  0
  6 30  1  0
  7 31  1  0
  7 32  1  0
  7 33  1  0
  8 34  1  0
  8 35  1  0
  9 36  1  0
 13 37  1  0
 14 38  1  0
 16 39  1  0
 20 40  1  0
 21 41  1  0
 21 42  1  0
 22 43  1  0
 22 44  1  0
 23 45  1  0
 23 46  1  0
 24 47  1  0
 24 48  1  0
M  END
>  <Energy>  (208) 
105.40932587516433

>  <compound_id>  (208) 
64900

>  <target_id>  (208) 
1

>  <reference_id>  (208) 
39

>  <inspiration_ids>  (208) 
[71, 39]

>  <energy_score>  (208) 
-7.364786927613352

>  <distance_score>  (208) 
14.805228217309542

>  <path>  (208) 
/opt/xchem-fragalysis-2/maxwin/BulkDock/SCRATCH/511022/C64900-P39/C64900-P39.minimised.mol

>  <scratch_subdir>  (208) 
/opt/xchem-fragalysis-2/maxwin/BulkDock/SCRATCH/511022/C64900-P39

>  <fragmenstein_runtime>  (208) 
41.57647705078125

>  <fragmenstein_outcome>  (208) 
too moved

>  <fragmenstein_mode>  (208) 
expansion

>  <fragmenstein_error>  (208) 


$$$$
C64905-P71
     RDKit          3D

 53 57  0  0  0  0  0  0  0  0999 V2000
   -0.3812  -18.7460   20.9160 O   0  0  0  0  0  0  0  0  0  0  0  0
   -1.0652  -17.7683   20.7174 C   0  0  0  0  0  0  0  0  0  0  0  0
   -0.7299  -16.8496   19.2851 C   0  0  0  0  0  0  0  0  0  0  0  0
    0.7418  -16.3542   18.3778 C   0  0  0  0  0  0  0  0  0  0  0  0
    2.0057  -15.8649   18.6336 N   0  0  0  0  0  0  0  0  0  0  0  0
    2.6628  -15.0992   17.5073 C   0  0  0  0  0  0  0  0  0  0  0  0
    4.0360  -14.3493   17.3463 C   0  0  0  0  0  0  0  0  0  0  0  0
    4.6433  -13.4587   18.2534 C   0  0  0  0  0  0  0  0  0  0  0  0
    5.8364  -12.7199   18.0000 C   0  0  0  0  0  0  0  0  0  0  0  0
    6.4697  -12.8042   16.7764 C   0  0  0  0  0  0  0  0  0  0  0  0
    5.9119  -13.6519   15.8304 C   0  0  0  0  0  0  0  0  0  0  0  0
    4.7346  -14.4056   16.1147 C   0  0  0  0  0  0  0  0  0  0  0  0
    1.8054  -15.0704   16.4273 C   0  0  0  0  0  0  0  0  0  0  0  0
    0.3317  -15.9079   16.6967 S   0  0  0  0  0  0  0  0  0  0  0  0
   -2.2612  -17.1709   21.5602 N   0  0  0  0  0  0  0  0  0  0  0  0
   -2.8905  -17.6294   23.0465 N   0  0  0  0  0  0  0  0  0  0  0  0
   -4.3680  -17.6418   23.5677 C   0  0  0  0  0  0  0  0  0  0  0  0
   -5.3992  -17.4014   22.9854 O   0  0  0  0  0  0  0  0  0  0  0  0
   -4.7007  -17.9080   25.2826 C   0  0  0  0  0  0  0  0  0  0  0  0
   -5.3513  -16.7733   25.8225 C   0  0  0  0  0  0  0  0  0  0  0  0
   -6.3438  -16.7469   26.8930 C   0  0  0  0  0  0  0  0  0  0  0  0
   -6.8820  -17.9229   27.4729 C   0  0  0  0  0  0  0  0  0  0  0  0
   -8.0640  -18.0658   28.2738 N   0  0  0  0  0  0  0  0  0  0  0  0
   -8.5723  -19.4227   28.3889 C   0  0  0  0  0  0  0  0  0  0  0  0
   -7.3512  -20.2280   27.7069 C   0  0  0  0  0  0  0  0  0  0  0  0
   -6.2954  -19.1475   27.1215 C   0  0  0  0  0  0  0  0  0  0  0  0
   -5.1238  -19.0845   26.0521 C   0  0  0  0  0  0  0  0  0  0  0  0
   -7.5767  -22.0892   27.6478 C   0  0  0  0  0  0  0  0  0  0  0  0
   -9.1302  -22.9015   28.1056 C   0  0  0  0  0  0  0  0  0  0  0  0
  -10.4064  -21.9868   28.3946 C   0  0  0  0  0  0  0  0  0  0  0  0
  -10.1599  -20.5844   29.1201 C   0  0  0  0  0  0  0  0  0  0  0  0
   -1.2195  -17.4807   18.5245 H   0  0  0  0  0  0  0  0  0  0  0  0
   -1.3359  -15.9394   19.3371 H   0  0  0  0  0  0  0  0  0  0  0  0
    4.2165  -13.2845   19.2291 H   0  0  0  0  0  0  0  0  0  0  0  0
    6.2234  -12.0709   18.7800 H   0  0  0  0  0  0  0  0  0  0  0  0
    7.3691  -12.2378   16.5651 H   0  0  0  0  0  0  0  0  0  0  0  0
    6.3833  -13.7580   14.8557 H   0  0  0  0  0  0  0  0  0  0  0  0
    4.3709  -15.0637   15.3259 H   0  0  0  0  0  0  0  0  0  0  0  0
    1.9561  -14.5966   15.4681 H   0  0  0  0  0  0  0  0  0  0  0  0
   -2.6656  -16.3906   21.0646 H   0  0  0  0  0  0  0  0  0  0  0  0
   -2.2719  -17.9619   23.7792 H   0  0  0  0  0  0  0  0  0  0  0  0
   -5.1847  -15.8138   25.3235 H   0  0  0  0  0  0  0  0  0  0  0  0
   -6.7880  -15.7811   27.1363 H   0  0  0  0  0  0  0  0  0  0  0  0
   -8.5740  -17.2630   28.6059 H   0  0  0  0  0  0  0  0  0  0  0  0
   -4.7304  -20.0509   25.7349 H   0  0  0  0  0  0  0  0  0  0  0  0
   -6.6984  -22.5326   28.1068 H   0  0  0  0  0  0  0  0  0  0  0  0
   -7.3765  -22.5342   26.6782 H   0  0  0  0  0  0  0  0  0  0  0  0
   -9.4634  -23.5389   27.2627 H   0  0  0  0  0  0  0  0  0  0  0  0
   -9.0317  -23.7694   28.7656 H   0  0  0  0  0  0  0  0  0  0  0  0
  -11.0944  -22.5715   29.0262 H   0  0  0  0  0  0  0  0  0  0  0  0
  -11.0261  -21.8402   27.5020 H   0  0  0  0  0  0  0  0  0  0  0  0
  -11.1851  -20.2656   29.3758 H   0  0  0  0  0  0  0  0  0  0  0  0
  -10.1205  -20.8212   30.1976 H   0  0  0  0  0  0  0  0  0  0  0  0
  1  2  2  0
  2  3  1  0
  3  4  1  0
  4  5  2  0
  5  6  1  0
  6  7  1  0
  7  8  2  0
  8  9  1  0
  9 10  2  0
 10 11  1  0
 11 12  2  0
  6 13  2  0
 13 14  1  0
  2 15  1  0
 15 16  1  0
 16 17  1  0
 17 18  2  0
 17 19  1  0
 19 20  2  0
 20 21  1  0
 21 22  2  0
 22 23  1  0
 23 24  1  0
 24 25  2  0
 25 26  1  0
 26 27  2  0
 25 28  1  0
 28 29  1  0
 29 30  1  0
 30 31  1  0
 14  4  1  0
 27 19  1  0
 12  7  1  0
 26 22  1  0
 31 24  1  0
  3 32  1  0
  3 33  1  0
  8 34  1  0
  9 35  1  0
 10 36  1  0
 11 37  1  0
 12 38  1  0
 13 39  1  0
 15 40  1  0
 16 41  1  0
 20 42  1  0
 21 43  1  0
 23 44  1  0
 27 45  1  0
 28 46  1  0
 28 47  1  0
 29 48  1  0
 29 49  1  0
 30 50  1  0
 30 51  1  0
 31 52  1  0
 31 53  1  0
M  END
>  <Energy>  (209) 
547.47988331797831

>  <compound_id>  (209) 
64905

>  <target_id>  (209) 
1

>  <reference_id>  (209) 
71

>  <inspiration_ids>  (209) 
[71, 39]

>  <energy_score>  (209) 
378.7904958001758

>  <distance_score>  (209) 
14.478905307209807

>  <path>  (209) 
/opt/xchem-fragalysis-2/maxwin/BulkDock/SCRATCH/511022/C64905-P71/C64905-P71.minimised.mol

>  <scratch_subdir>  (209) 
/opt/xchem-fragalysis-2/maxwin/BulkDock/SCRATCH/511022/C64905-P71

>  <fragmenstein_runtime>  (209) 
44.10998749732971

>  <fragmenstein_outcome>  (209) 
too moved

>  <fragmenstein_mode>  (209) 
expansion

>  <fragmenstein_error>  (209) 


$$$$
C64905-P39
     RDKit          3D

 53 57  0  0  0  0  0  0  0  0999 V2000
    4.4829  -15.2470   24.9792 O   0  0  0  0  0  0  0  0  0  0  0  0
    4.1608  -14.0756   25.0238 C   0  0  0  0  0  0  0  0  0  0  0  0
    5.5452  -13.0674   25.9296 C   0  0  0  0  0  0  0  0  0  0  0  0
    6.9972  -12.2511   25.4149 C   0  0  0  0  0  0  0  0  0  0  0  0
    7.3016  -10.9969   24.9993 N   0  0  0  0  0  0  0  0  0  0  0  0
    8.7460  -10.7277   25.0182 C   0  0  0  0  0  0  0  0  0  0  0  0
    9.5283   -9.5149   24.5589 C   0  0  0  0  0  0  0  0  0  0  0  0
    9.1618   -8.2051   24.8494 C   0  0  0  0  0  0  0  0  0  0  0  0
    9.9478   -7.1093   24.4059 C   0  0  0  0  0  0  0  0  0  0  0  0
   11.1071   -7.2920   23.6538 C   0  0  0  0  0  0  0  0  0  0  0  0
   11.5051   -8.5827   23.3572 C   0  0  0  0  0  0  0  0  0  0  0  0
   10.7358   -9.6694   23.8166 C   0  0  0  0  0  0  0  0  0  0  0  0
    9.4671  -11.8039   25.4777 C   0  0  0  0  0  0  0  0  0  0  0  0
    8.4643  -13.0912   25.9291 S   0  0  0  0  0  0  0  0  0  0  0  0
    2.5926  -13.3782   24.3605 N   0  0  0  0  0  0  0  0  0  0  0  0
    1.0961  -14.2504   23.6088 N   0  0  0  0  0  0  0  0  0  0  0  0
   -0.6152  -14.3840   24.1734 C   0  0  0  0  0  0  0  0  0  0  0  0
   -1.1710  -13.8378   25.1405 O   0  0  0  0  0  0  0  0  0  0  0  0
   -1.8026  -15.5877   23.3782 C   0  0  0  0  0  0  0  0  0  0  0  0
   -2.8981  -15.8774   24.3058 C   0  0  0  0  0  0  0  0  0  0  0  0
   -3.8688  -16.8921   24.1878 C   0  0  0  0  0  0  0  0  0  0  0  0
   -3.7183  -17.7401   23.1047 C   0  0  0  0  0  0  0  0  0  0  0  0
   -4.4027  -18.8972   22.7805 N   0  0  0  0  0  0  0  0  0  0  0  0
   -3.8104  -19.4706   21.6924 C   0  0  0  0  0  0  0  0  0  0  0  0
   -2.8069  -18.6370   21.2481 C   0  0  0  0  0  0  0  0  0  0  0  0
   -2.7290  -17.5287   22.1371 C   0  0  0  0  0  0  0  0  0  0  0  0
   -1.8183  -16.4132   22.2342 C   0  0  0  0  0  0  0  0  0  0  0  0
   -1.9236  -18.9797   20.0910 C   0  0  0  0  0  0  0  0  0  0  0  0
   -2.4730  -20.1727   19.2893 C   0  0  0  0  0  0  0  0  0  0  0  0
   -3.0167  -21.2835   20.2050 C   0  0  0  0  0  0  0  0  0  0  0  0
   -4.1730  -20.7729   21.0823 C   0  0  0  0  0  0  0  0  0  0  0  0
    6.0083  -14.0013   26.3276 H   0  0  0  0  0  0  0  0  0  0  0  0
    5.4072  -12.7345   26.9754 H   0  0  0  0  0  0  0  0  0  0  0  0
    8.2606   -8.0396   25.4316 H   0  0  0  0  0  0  0  0  0  0  0  0
    9.6515   -6.0913   24.6427 H   0  0  0  0  0  0  0  0  0  0  0  0
   11.6858   -6.4363   23.3169 H   0  0  0  0  0  0  0  0  0  0  0  0
   12.4085   -8.7609   22.7804 H   0  0  0  0  0  0  0  0  0  0  0  0
   11.0799  -10.6690   23.5520 H   0  0  0  0  0  0  0  0  0  0  0  0
   10.5367  -11.8925   25.6050 H   0  0  0  0  0  0  0  0  0  0  0  0
    2.5308  -12.4050   24.5966 H   0  0  0  0  0  0  0  0  0  0  0  0
    1.2242  -14.7657   22.7227 H   0  0  0  0  0  0  0  0  0  0  0  0
   -2.9761  -15.2794   25.2204 H   0  0  0  0  0  0  0  0  0  0  0  0
   -4.6230  -17.0411   24.9526 H   0  0  0  0  0  0  0  0  0  0  0  0
   -5.1603  -19.2954   23.3185 H   0  0  0  0  0  0  0  0  0  0  0  0
   -1.0338  -16.3740   21.4918 H   0  0  0  0  0  0  0  0  0  0  0  0
   -0.9284  -19.2338   20.4767 H   0  0  0  0  0  0  0  0  0  0  0  0
   -1.8071  -18.1142   19.4292 H   0  0  0  0  0  0  0  0  0  0  0  0
   -3.2815  -19.8275   18.6319 H   0  0  0  0  0  0  0  0  0  0  0  0
   -1.6845  -20.5720   18.6415 H   0  0  0  0  0  0  0  0  0  0  0  0
   -2.2035  -21.6540   20.8424 H   0  0  0  0  0  0  0  0  0  0  0  0
   -3.3635  -22.1292   19.6006 H   0  0  0  0  0  0  0  0  0  0  0  0
   -5.0467  -20.6163   20.4440 H   0  0  0  0  0  0  0  0  0  0  0  0
   -4.4142  -21.5131   21.8511 H   0  0  0  0  0  0  0  0  0  0  0  0
  1  2  2  0
  2  3  1  0
  3  4  1  0
  4  5  2  0
  5  6  1  0
  6  7  1  0
  7  8  2  0
  8  9  1  0
  9 10  2  0
 10 11  1  0
 11 12  2  0
  6 13  2  0
 13 14  1  0
  2 15  1  0
 15 16  1  0
 16 17  1  0
 17 18  2  0
 17 19  1  0
 19 20  2  0
 20 21  1  0
 21 22  2  0
 22 23  1  0
 23 24  1  0
 24 25  2  0
 25 26  1  0
 26 27  2  0
 25 28  1  0
 28 29  1  0
 29 30  1  0
 30 31  1  0
 14  4  1  0
 27 19  1  0
 12  7  1  0
 26 22  1  0
 31 24  1  0
  3 32  1  0
  3 33  1  0
  8 34  1  0
  9 35  1  0
 10 36  1  0
 11 37  1  0
 12 38  1  0
 13 39  1  0
 15 40  1  0
 16 41  1  0
 20 42  1  0
 21 43  1  0
 23 44  1  0
 27 45  1  0
 28 46  1  0
 28 47  1  0
 29 48  1  0
 29 49  1  0
 30 50  1  0
 30 51  1  0
 31 52  1  0
 31 53  1  0
M  END
>  <Energy>  (210) 
436.55663780392786

>  <compound_id>  (210) 
64905

>  <target_id>  (210) 
1

>  <reference_id>  (210) 
39

>  <inspiration_ids>  (210) 
[71, 39]

>  <energy_score>  (210) 
267.8672502861171

>  <distance_score>  (210) 
13.505839058918568

>  <path>  (210) 
/opt/xchem-fragalysis-2/maxwin/BulkDock/SCRATCH/511022/C64905-P39/C64905-P39.minimised.mol

>  <scratch_subdir>  (210) 
/opt/xchem-fragalysis-2/maxwin/BulkDock/SCRATCH/511022/C64905-P39

>  <fragmenstein_runtime>  (210) 
31.40291142463684

>  <fragmenstein_outcome>  (210) 
too moved

>  <fragmenstein_mode>  (210) 
expansion

>  <fragmenstein_error>  (210) 


$$$$
C54491-P71
     RDKit          3D

 44 47  0  0  0  0  0  0  0  0999 V2000
    1.3918  -14.8067   29.6319 C   0  0  0  0  0  0  0  0  0  0  0  0
   -0.0131  -14.3916   29.3118 C   0  0  0  0  0  0  0  0  0  0  0  0
   -0.0456  -13.2121   28.5457 N   0  0  0  0  0  0  0  0  0  0  0  0
   -1.2671  -12.9723   28.1538 C   0  0  0  0  0  0  0  0  0  0  0  0
   -2.4581  -14.0739   28.7056 S   0  0  0  0  0  0  0  0  0  0  0  0
   -1.2763  -15.0107   29.5892 C   0  0  0  0  0  0  0  0  0  0  0  0
   -1.7580  -16.4152   30.3342 C   0  0  0  0  0  0  0  0  0  0  0  0
   -3.1071  -16.4936   31.2666 C   0  0  0  0  0  0  0  0  0  0  0  0
   -3.7154  -17.8912   31.6856 O   0  0  0  0  0  0  0  0  0  0  0  0
   -4.4320  -17.9794   32.9095 C   0  0  0  0  0  0  0  0  0  0  0  0
   -4.3704  -17.0200   33.6858 O   0  0  0  0  0  0  0  0  0  0  0  0
   -5.3484  -19.2166   33.4209 C   0  0  0  0  0  0  0  0  0  0  0  0
   -5.7426  -19.2332   34.7580 C   0  0  0  0  0  0  0  0  0  0  0  0
   -6.5955  -20.2327   35.3184 C   0  0  0  0  0  0  0  0  0  0  0  0
   -7.3058  -21.1436   34.4902 C   0  0  0  0  0  0  0  0  0  0  0  0
   -7.9031  -22.3991   34.6269 N   0  0  0  0  0  0  0  0  0  0  0  0
   -8.9048  -22.6490   33.5505 C   0  0  0  0  0  0  0  0  0  0  0  0
   -7.8405  -22.9586   32.7980 C   0  0  0  0  0  0  0  0  0  0  0  0
   -7.2566  -21.2451   33.1380 C   0  0  0  0  0  0  0  0  0  0  0  0
   -5.9269  -20.3062   32.7177 C   0  0  0  0  0  0  0  0  0  0  0  0
   -8.4567  -24.5243   32.6305 C   0  0  0  0  0  0  0  0  0  0  0  0
   -9.6589  -24.7722   31.7102 C   0  0  0  0  0  0  0  0  0  0  0  0
  -10.7629  -23.7981   32.0466 C   0  0  0  0  0  0  0  0  0  0  0  0
  -10.4480  -23.1820   33.3953 C   0  0  0  0  0  0  0  0  0  0  0  0
    1.7704  -14.2207   30.4746 H   0  0  0  0  0  0  0  0  0  0  0  0
    2.0504  -14.6517   28.7721 H   0  0  0  0  0  0  0  0  0  0  0  0
    1.4259  -15.8665   29.9017 H   0  0  0  0  0  0  0  0  0  0  0  0
   -1.5227  -12.1352   27.5214 H   0  0  0  0  0  0  0  0  0  0  0  0
   -1.8700  -17.1538   29.5301 H   0  0  0  0  0  0  0  0  0  0  0  0
   -0.9113  -16.7450   30.9487 H   0  0  0  0  0  0  0  0  0  0  0  0
   -2.9088  -15.9334   32.1852 H   0  0  0  0  0  0  0  0  0  0  0  0
   -3.9276  -16.0118   30.7261 H   0  0  0  0  0  0  0  0  0  0  0  0
   -5.3265  -18.4913   35.4395 H   0  0  0  0  0  0  0  0  0  0  0  0
   -6.6776  -20.3050   36.3994 H   0  0  0  0  0  0  0  0  0  0  0  0
   -7.8200  -22.9198   35.4883 H   0  0  0  0  0  0  0  0  0  0  0  0
   -5.6071  -20.2848   31.6856 H   0  0  0  0  0  0  0  0  0  0  0  0
   -8.7490  -24.9511   33.6089 H   0  0  0  0  0  0  0  0  0  0  0  0
   -7.6526  -25.1823   32.3336 H   0  0  0  0  0  0  0  0  0  0  0  0
  -10.0197  -25.7932   31.8885 H   0  0  0  0  0  0  0  0  0  0  0  0
   -9.4048  -24.7564   30.6483 H   0  0  0  0  0  0  0  0  0  0  0  0
  -10.9060  -23.0210   31.2946 H   0  0  0  0  0  0  0  0  0  0  0  0
  -11.7210  -24.3256   32.0913 H   0  0  0  0  0  0  0  0  0  0  0  0
  -10.6985  -24.0003   34.0845 H   0  0  0  0  0  0  0  0  0  0  0  0
  -11.1572  -22.3623   33.5528 H   0  0  0  0  0  0  0  0  0  0  0  0
  1  2  1  0
  2  3  1  0
  3  4  2  0
  4  5  1  0
  5  6  1  0
  6  7  1  0
  7  8  1  0
  8  9  1  0
  9 10  1  0
 10 11  2  0
 10 12  1  0
 12 13  2  0
 13 14  1  0
 14 15  2  0
 15 16  1  0
 16 17  1  0
 17 18  2  0
 18 19  1  0
 19 20  2  0
 18 21  1  0
 21 22  1  0
 22 23  1  0
 23 24  1  0
  6  2  2  0
 20 12  1  0
 19 15  1  0
 24 17  1  0
  1 25  1  0
  1 26  1  0
  1 27  1  0
  4 28  1  0
  7 29  1  0
  7 30  1  0
  8 31  1  0
  8 32  1  0
 13 33  1  0
 14 34  1  0
 16 35  1  0
 20 36  1  0
 21 37  1  0
 21 38  1  0
 22 39  1  0
 22 40  1  0
 23 41  1  0
 23 42  1  0
 24 43  1  0
 24 44  1  0
M  END
>  <Energy>  (211) 
354.17727020213033

>  <compound_id>  (211) 
54491

>  <target_id>  (211) 
1

>  <reference_id>  (211) 
71

>  <inspiration_ids>  (211) 
[71, 39]

>  <energy_score>  (211) 
246.27984052017678

>  <distance_score>  (211) 
15.630649617000618

>  <path>  (211) 
/opt/xchem-fragalysis-2/maxwin/BulkDock/SCRATCH/511022/C54491-P71/C54491-P71.minimised.mol

>  <scratch_subdir>  (211) 
/opt/xchem-fragalysis-2/maxwin/BulkDock/SCRATCH/511022/C54491-P71

>  <fragmenstein_runtime>  (211) 
34.2024507522583

>  <fragmenstein_outcome>  (211) 
too moved

>  <fragmenstein_mode>  (211) 
expansion

>  <fragmenstein_error>  (211) 


$$$$
C54491-P39
     RDKit          3D

 44 47  0  0  0  0  0  0  0  0999 V2000
    3.3130  -13.8657   21.5587 C   0  0  0  0  0  0  0  0  0  0  0  0
    2.8853  -13.9316   23.4778 C   0  0  0  0  0  0  0  0  0  0  0  0
    3.6250  -13.0000   23.8955 N   0  0  0  0  0  0  0  0  0  0  0  0
    3.3467  -12.1595   22.9688 C   0  0  0  0  0  0  0  0  0  0  0  0
    1.8639  -11.9953   23.4705 S   0  0  0  0  0  0  0  0  0  0  0  0
    1.8279  -13.1796   24.6286 C   0  0  0  0  0  0  0  0  0  0  0  0
    0.6112  -13.2848   26.2329 C   0  0  0  0  0  0  0  0  0  0  0  0
   -1.3935  -13.5056   26.6936 C   0  0  0  0  0  0  0  0  0  0  0  0
   -3.0376  -14.5094   26.6959 O   0  0  0  0  0  0  0  0  0  0  0  0
   -4.3109  -15.2032   27.7218 C   0  0  0  0  0  0  0  0  0  0  0  0
   -3.8978  -15.3100   28.8898 O   0  0  0  0  0  0  0  0  0  0  0  0
   -6.1775  -15.8083   27.6182 C   0  0  0  0  0  0  0  0  0  0  0  0
   -7.2211  -15.0686   27.0111 C   0  0  0  0  0  0  0  0  0  0  0  0
   -8.8437  -15.2820   27.1362 C   0  0  0  0  0  0  0  0  0  0  0  0
   -9.6568  -16.3261   27.8438 C   0  0  0  0  0  0  0  0  0  0  0  0
  -10.9983  -16.5182   28.4157 N   0  0  0  0  0  0  0  0  0  0  0  0
  -11.8608  -17.9470   28.8634 C   0  0  0  0  0  0  0  0  0  0  0  0
  -10.4771  -18.0142   29.2972 C   0  0  0  0  0  0  0  0  0  0  0  0
   -8.9392  -17.2221   28.5434 C   0  0  0  0  0  0  0  0  0  0  0  0
   -7.1977  -16.9198   28.4471 C   0  0  0  0  0  0  0  0  0  0  0  0
  -10.5052  -20.0898   30.0410 C   0  0  0  0  0  0  0  0  0  0  0  0
  -11.4673  -21.1288   30.7369 C   0  0  0  0  0  0  0  0  0  0  0  0
  -12.5078  -21.2806   29.7597 C   0  0  0  0  0  0  0  0  0  0  0  0
  -12.2700  -19.9993   28.8300 C   0  0  0  0  0  0  0  0  0  0  0  0
    2.6504  -14.5071   20.9343 H   0  0  0  0  0  0  0  0  0  0  0  0
    3.1464  -12.9130   21.1713 H   0  0  0  0  0  0  0  0  0  0  0  0
    4.2775  -13.4539   21.0958 H   0  0  0  0  0  0  0  0  0  0  0  0
    4.0198  -11.5728   22.3510 H   0  0  0  0  0  0  0  0  0  0  0  0
    1.1803  -13.8940   26.9549 H   0  0  0  0  0  0  0  0  0  0  0  0
    0.7471  -12.2651   26.6363 H   0  0  0  0  0  0  0  0  0  0  0  0
   -1.3416  -13.4383   27.7879 H   0  0  0  0  0  0  0  0  0  0  0  0
   -1.8500  -12.5848   26.3272 H   0  0  0  0  0  0  0  0  0  0  0  0
   -6.9464  -14.1711   26.4483 H   0  0  0  0  0  0  0  0  0  0  0  0
   -9.4148  -14.4737   26.6638 H   0  0  0  0  0  0  0  0  0  0  0  0
  -11.5755  -15.7004   28.5253 H   0  0  0  0  0  0  0  0  0  0  0  0
   -6.6674  -17.5645   29.1620 H   0  0  0  0  0  0  0  0  0  0  0  0
  -10.0610  -20.7376   29.3094 H   0  0  0  0  0  0  0  0  0  0  0  0
  -10.1768  -20.1252   31.1300 H   0  0  0  0  0  0  0  0  0  0  0  0
  -11.8260  -20.8719   31.7440 H   0  0  0  0  0  0  0  0  0  0  0  0
  -10.9765  -22.0906   30.9086 H   0  0  0  0  0  0  0  0  0  0  0  0
  -13.4420  -21.5638   30.2577 H   0  0  0  0  0  0  0  0  0  0  0  0
  -12.3164  -22.1906   29.1597 H   0  0  0  0  0  0  0  0  0  0  0  0
  -11.4038  -20.6239   28.5020 H   0  0  0  0  0  0  0  0  0  0  0  0
  -12.2487  -20.5227   27.8563 H   0  0  0  0  0  0  0  0  0  0  0  0
  1  2  1  0
  2  3  1  0
  3  4  2  0
  4  5  1  0
  5  6  1  0
  6  7  1  0
  7  8  1  0
  8  9  1  0
  9 10  1  0
 10 11  2  0
 10 12  1  0
 12 13  2  0
 13 14  1  0
 14 15  2  0
 15 16  1  0
 16 17  1  0
 17 18  2  0
 18 19  1  0
 19 20  2  0
 18 21  1  0
 21 22  1  0
 22 23  1  0
 23 24  1  0
  6  2  2  0
 20 12  1  0
 19 15  1  0
 24 17  1  0
  1 25  1  0
  1 26  1  0
  1 27  1  0
  4 28  1  0
  7 29  1  0
  7 30  1  0
  8 31  1  0
  8 32  1  0
 13 33  1  0
 14 34  1  0
 16 35  1  0
 20 36  1  0
 21 37  1  0
 21 38  1  0
 22 39  1  0
 22 40  1  0
 23 41  1  0
 23 42  1  0
 24 43  1  0
 24 44  1  0
M  END
>  <Energy>  (212) 
1525.7287559949661

>  <compound_id>  (212) 
54491

>  <target_id>  (212) 
1

>  <reference_id>  (212) 
39

>  <inspiration_ids>  (212) 
[71, 39]

>  <energy_score>  (212) 
1417.8313263130042

>  <distance_score>  (212) 
13.241367485624652

>  <path>  (212) 
/opt/xchem-fragalysis-2/maxwin/BulkDock/SCRATCH/511022/C54491-P39/C54491-P39.minimised.mol

>  <scratch_subdir>  (212) 
/opt/xchem-fragalysis-2/maxwin/BulkDock/SCRATCH/511022/C54491-P39

>  <fragmenstein_runtime>  (212) 
19.427661657333374

>  <fragmenstein_outcome>  (212) 
too moved

>  <fragmenstein_mode>  (212) 
expansion

>  <fragmenstein_error>  (212) 


$$$$
C64908-P71
     RDKit          3D

 41 44  0  0  0  0  0  0  0  0999 V2000
   -3.3277  -18.9039   25.8092 C   0  0  0  0  0  0  0  0  0  0  0  0
   -4.6006  -18.1103   25.7847 C   0  0  0  0  0  0  0  0  0  0  0  0
   -4.4017  -16.8832   25.1131 N   0  0  0  0  0  0  0  0  0  0  0  0
   -5.4252  -16.1004   25.3019 C   0  0  0  0  0  0  0  0  0  0  0  0
   -6.6695  -16.7404   26.2861 S   0  0  0  0  0  0  0  0  0  0  0  0
   -5.9061  -18.3457   26.3680 C   0  0  0  0  0  0  0  0  0  0  0  0
   -6.5677  -19.5148   27.4671 C   0  0  0  0  0  0  0  0  0  0  0  0
   -7.7766  -20.9304   27.3522 O   0  0  0  0  0  0  0  0  0  0  0  0
   -9.2703  -20.6226   27.8325 C   0  0  0  0  0  0  0  0  0  0  0  0
   -9.3267  -19.4035   28.2532 O   0  0  0  0  0  0  0  0  0  0  0  0
  -10.5626  -21.9989   27.8735 C   0  0  0  0  0  0  0  0  0  0  0  0
   -9.7574  -23.1582   28.1639 C   0  0  0  0  0  0  0  0  0  0  0  0
  -10.0751  -24.4755   28.5242 C   0  0  0  0  0  0  0  0  0  0  0  0
  -11.3393  -24.8247   28.2088 C   0  0  0  0  0  0  0  0  0  0  0  0
  -11.8967  -26.0649   28.2941 N   0  0  0  0  0  0  0  0  0  0  0  0
  -13.0091  -26.0834   27.5280 C   0  0  0  0  0  0  0  0  0  0  0  0
  -13.2086  -24.7950   27.0432 C   0  0  0  0  0  0  0  0  0  0  0  0
  -12.2301  -23.9085   27.6665 C   0  0  0  0  0  0  0  0  0  0  0  0
  -11.8515  -22.4731   27.7601 C   0  0  0  0  0  0  0  0  0  0  0  0
  -14.2084  -24.6286   25.9403 C   0  0  0  0  0  0  0  0  0  0  0  0
  -14.4129  -25.9538   25.1738 C   0  0  0  0  0  0  0  0  0  0  0  0
  -14.8262  -27.0697   26.1432 C   0  0  0  0  0  0  0  0  0  0  0  0
  -13.7312  -27.3396   27.1798 C   0  0  0  0  0  0  0  0  0  0  0  0
   -3.5294  -19.9370   26.1077 H   0  0  0  0  0  0  0  0  0  0  0  0
   -2.8616  -18.9192   24.8190 H   0  0  0  0  0  0  0  0  0  0  0  0
   -2.6257  -18.4662   26.5251 H   0  0  0  0  0  0  0  0  0  0  0  0
   -5.4781  -15.0991   24.8972 H   0  0  0  0  0  0  0  0  0  0  0  0
   -5.6309  -20.0675   27.6345 H   0  0  0  0  0  0  0  0  0  0  0  0
   -6.9278  -18.9530   28.3331 H   0  0  0  0  0  0  0  0  0  0  0  0
   -8.6871  -22.9644   28.1901 H   0  0  0  0  0  0  0  0  0  0  0  0
   -9.3413  -25.1840   28.8869 H   0  0  0  0  0  0  0  0  0  0  0  0
  -11.4438  -26.8663   28.7128 H   0  0  0  0  0  0  0  0  0  0  0  0
  -12.6198  -21.7723   27.7246 H   0  0  0  0  0  0  0  0  0  0  0  0
  -13.9054  -23.8379   25.2482 H   0  0  0  0  0  0  0  0  0  0  0  0
  -15.1908  -24.4140   26.3560 H   0  0  0  0  0  0  0  0  0  0  0  0
  -15.1839  -25.8252   24.4078 H   0  0  0  0  0  0  0  0  0  0  0  0
  -13.4850  -26.2488   24.6770 H   0  0  0  0  0  0  0  0  0  0  0  0
  -15.0513  -27.9907   25.5944 H   0  0  0  0  0  0  0  0  0  0  0  0
  -15.7507  -26.7754   26.6567 H   0  0  0  0  0  0  0  0  0  0  0  0
  -13.0151  -28.0591   26.7671 H   0  0  0  0  0  0  0  0  0  0  0  0
  -14.1682  -27.7954   28.0751 H   0  0  0  0  0  0  0  0  0  0  0  0
  1  2  1  0
  2  3  1  0
  3  4  2  0
  4  5  1  0
  5  6  1  0
  6  7  1  0
  7  8  1  0
  8  9  1  0
  9 10  2  0
  9 11  1  0
 11 12  2  0
 12 13  1  0
 13 14  2  0
 14 15  1  0
 15 16  1  0
 16 17  2  0
 17 18  1  0
 18 19  2  0
 17 20  1  0
 20 21  1  0
 21 22  1  0
 22 23  1  0
  6  2  2  0
 19 11  1  0
 18 14  1  0
 23 16  1  0
  1 24  1  0
  1 25  1  0
  1 26  1  0
  4 27  1  0
  7 28  1  0
  7 29  1  0
 12 30  1  0
 13 31  1  0
 15 32  1  0
 19 33  1  0
 20 34  1  0
 20 35  1  0
 21 36  1  0
 21 37  1  0
 22 38  1  0
 22 39  1  0
 23 40  1  0
 23 41  1  0
M  END
>  <Energy>  (213) 
255.37425229391042

>  <compound_id>  (213) 
64908

>  <target_id>  (213) 
1

>  <reference_id>  (213) 
71

>  <inspiration_ids>  (213) 
[71, 39]

>  <energy_score>  (213) 
130.8376102239547

>  <distance_score>  (213) 
16.682976959506654

>  <path>  (213) 
/opt/xchem-fragalysis-2/maxwin/BulkDock/SCRATCH/511022/C64908-P71/C64908-P71.minimised.mol

>  <scratch_subdir>  (213) 
/opt/xchem-fragalysis-2/maxwin/BulkDock/SCRATCH/511022/C64908-P71

>  <fragmenstein_runtime>  (213) 
18.393205404281616

>  <fragmenstein_outcome>  (213) 
too moved

>  <fragmenstein_mode>  (213) 
expansion

>  <fragmenstein_error>  (213) 


$$$$
C64908-P39
     RDKit          3D

 41 44  0  0  0  0  0  0  0  0999 V2000
    0.1786   -6.6186   23.6502 C   0  0  0  0  0  0  0  0  0  0  0  0
   -0.4884   -7.3036   22.5034 C   0  0  0  0  0  0  0  0  0  0  0  0
    0.2340   -7.1965   21.3121 N   0  0  0  0  0  0  0  0  0  0  0  0
   -0.4022   -7.8191   20.3541 C   0  0  0  0  0  0  0  0  0  0  0  0
   -1.8974   -8.5335   20.7872 S   0  0  0  0  0  0  0  0  0  0  0  0
   -1.7291   -7.9885   22.4247 C   0  0  0  0  0  0  0  0  0  0  0  0
   -2.9525   -8.1660   23.4102 C   0  0  0  0  0  0  0  0  0  0  0  0
   -3.2974   -9.5863   23.8003 O   0  0  0  0  0  0  0  0  0  0  0  0
   -4.5989   -9.8419   24.2480 C   0  0  0  0  0  0  0  0  0  0  0  0
   -5.4833   -8.9966   24.1811 O   0  0  0  0  0  0  0  0  0  0  0  0
   -4.9298  -11.2418   24.8533 C   0  0  0  0  0  0  0  0  0  0  0  0
   -4.0377  -11.9659   25.6516 C   0  0  0  0  0  0  0  0  0  0  0  0
   -4.3492  -13.2201   26.2434 C   0  0  0  0  0  0  0  0  0  0  0  0
   -5.6446  -13.7243   26.1028 C   0  0  0  0  0  0  0  0  0  0  0  0
   -6.2278  -14.8601   26.6346 N   0  0  0  0  0  0  0  0  0  0  0  0
   -7.5769  -14.7967   26.4412 C   0  0  0  0  0  0  0  0  0  0  0  0
   -7.8491  -13.7187   25.6180 C   0  0  0  0  0  0  0  0  0  0  0  0
   -6.6194  -13.0206   25.3942 C   0  0  0  0  0  0  0  0  0  0  0  0
   -6.2428  -11.7882   24.7557 C   0  0  0  0  0  0  0  0  0  0  0  0
   -9.2425  -13.2941   25.2814 C   0  0  0  0  0  0  0  0  0  0  0  0
  -10.2933  -14.2592   25.8702 C   0  0  0  0  0  0  0  0  0  0  0  0
   -9.8789  -14.8190   27.2470 C   0  0  0  0  0  0  0  0  0  0  0  0
   -8.5832  -15.6406   27.1316 C   0  0  0  0  0  0  0  0  0  0  0  0
    1.2506   -6.8387   23.6622 H   0  0  0  0  0  0  0  0  0  0  0  0
    0.0453   -5.5356   23.5685 H   0  0  0  0  0  0  0  0  0  0  0  0
   -0.2472   -6.9480   24.6025 H   0  0  0  0  0  0  0  0  0  0  0  0
   -0.0166   -7.8889   19.3458 H   0  0  0  0  0  0  0  0  0  0  0  0
   -3.8307   -7.7046   22.9447 H   0  0  0  0  0  0  0  0  0  0  0  0
   -2.7213   -7.6427   24.3439 H   0  0  0  0  0  0  0  0  0  0  0  0
   -3.0558  -11.5561   25.8592 H   0  0  0  0  0  0  0  0  0  0  0  0
   -3.6030  -13.7414   26.8375 H   0  0  0  0  0  0  0  0  0  0  0  0
   -5.7485  -15.5224   27.2300 H   0  0  0  0  0  0  0  0  0  0  0  0
   -7.0086  -11.2234   24.2261 H   0  0  0  0  0  0  0  0  0  0  0  0
   -9.4114  -12.2931   25.6975 H   0  0  0  0  0  0  0  0  0  0  0  0
   -9.3695  -13.2230   24.1956 H   0  0  0  0  0  0  0  0  0  0  0  0
  -11.2584  -13.7458   25.9469 H   0  0  0  0  0  0  0  0  0  0  0  0
  -10.4343  -15.0972   25.1753 H   0  0  0  0  0  0  0  0  0  0  0  0
  -10.6692  -15.4410   27.6730 H   0  0  0  0  0  0  0  0  0  0  0  0
   -9.7324  -13.9834   27.9444 H   0  0  0  0  0  0  0  0  0  0  0  0
   -8.7653  -16.5499   26.5516 H   0  0  0  0  0  0  0  0  0  0  0  0
   -8.2395  -15.9355   28.1288 H   0  0  0  0  0  0  0  0  0  0  0  0
  1  2  1  0
  2  3  1  0
  3  4  2  0
  4  5  1  0
  5  6  1  0
  6  7  1  0
  7  8  1  0
  8  9  1  0
  9 10  2  0
  9 11  1  0
 11 12  2  0
 12 13  1  0
 13 14  2  0
 14 15  1  0
 15 16  1  0
 16 17  2  0
 17 18  1  0
 18 19  2  0
 17 20  1  0
 20 21  1  0
 21 22  1  0
 22 23  1  0
  6  2  2  0
 19 11  1  0
 18 14  1  0
 23 16  1  0
  1 24  1  0
  1 25  1  0
  1 26  1  0
  4 27  1  0
  7 28  1  0
  7 29  1  0
 12 30  1  0
 13 31  1  0
 15 32  1  0
 19 33  1  0
 20 34  1  0
 20 35  1  0
 21 36  1  0
 21 37  1  0
 22 38  1  0
 22 39  1  0
 23 40  1  0
 23 41  1  0
M  END
>  <Energy>  (214) 
54.716527672400886

>  <compound_id>  (214) 
64908

>  <target_id>  (214) 
1

>  <reference_id>  (214) 
39

>  <inspiration_ids>  (214) 
[71, 39]

>  <energy_score>  (214) 
-69.82011439755746

>  <distance_score>  (214) 
15.392713144171664

>  <path>  (214) 
/opt/xchem-fragalysis-2/maxwin/BulkDock/SCRATCH/511022/C64908-P39/C64908-P39.minimised.mol

>  <scratch_subdir>  (214) 
/opt/xchem-fragalysis-2/maxwin/BulkDock/SCRATCH/511022/C64908-P39

>  <fragmenstein_runtime>  (214) 
26.521270990371704

>  <fragmenstein_outcome>  (214) 
too moved

>  <fragmenstein_mode>  (214) 
expansion

>  <fragmenstein_error>  (214) 


$$$$
C64909-P71
     RDKit          3D

 38 41  0  0  0  0  0  0  0  0999 V2000
   -7.2345  -10.5642   23.5206 O   0  0  0  0  0  0  0  0  0  0  0  0
   -6.1638  -10.6359   24.1090 C   0  0  0  0  0  0  0  0  0  0  0  0
   -5.0319   -9.9245   23.7901 O   0  0  0  0  0  0  0  0  0  0  0  0
   -5.0626   -9.2157   22.5089 C   0  0  0  0  0  0  0  0  0  0  0  0
   -3.7033   -9.2159   21.7540 C   0  0  0  0  0  0  0  0  0  0  0  0
   -2.4736   -9.3200   22.2424 N   0  0  0  0  0  0  0  0  0  0  0  0
   -1.5274   -9.2339   21.2311 C   0  0  0  0  0  0  0  0  0  0  0  0
   -2.0433   -9.1077   19.9632 C   0  0  0  0  0  0  0  0  0  0  0  0
   -3.7453   -9.0388   20.0230 S   0  0  0  0  0  0  0  0  0  0  0  0
   -5.9567  -11.5930   25.2606 C   0  0  0  0  0  0  0  0  0  0  0  0
   -4.9657  -11.3479   26.2082 C   0  0  0  0  0  0  0  0  0  0  0  0
   -4.7319  -12.2243   27.2721 C   0  0  0  0  0  0  0  0  0  0  0  0
   -5.4811  -13.3936   27.3430 C   0  0  0  0  0  0  0  0  0  0  0  0
   -5.3631  -14.4363   28.2271 N   0  0  0  0  0  0  0  0  0  0  0  0
   -6.3243  -15.3503   27.9638 C   0  0  0  0  0  0  0  0  0  0  0  0
   -7.1100  -14.8760   26.9264 C   0  0  0  0  0  0  0  0  0  0  0  0
   -6.5254  -13.6695   26.4605 C   0  0  0  0  0  0  0  0  0  0  0  0
   -6.7753  -12.7467   25.4091 C   0  0  0  0  0  0  0  0  0  0  0  0
   -8.3327  -15.5843   26.4795 C   0  0  0  0  0  0  0  0  0  0  0  0
   -8.7185  -16.6064   27.5608 C   0  0  0  0  0  0  0  0  0  0  0  0
   -7.4895  -17.4508   27.9597 C   0  0  0  0  0  0  0  0  0  0  0  0
   -6.4960  -16.5987   28.7362 C   0  0  0  0  0  0  0  0  0  0  0  0
   -5.3479   -8.1778   22.7116 H   0  0  0  0  0  0  0  0  0  0  0  0
   -5.8205   -9.6584   21.8515 H   0  0  0  0  0  0  0  0  0  0  0  0
   -0.4735   -9.2744   21.4806 H   0  0  0  0  0  0  0  0  0  0  0  0
   -1.5216   -9.0073   19.0243 H   0  0  0  0  0  0  0  0  0  0  0  0
   -4.3497  -10.4544   26.1246 H   0  0  0  0  0  0  0  0  0  0  0  0
   -3.9669  -12.0000   28.0072 H   0  0  0  0  0  0  0  0  0  0  0  0
   -4.6692  -14.4983   28.9602 H   0  0  0  0  0  0  0  0  0  0  0  0
   -7.5768  -12.9307   24.6985 H   0  0  0  0  0  0  0  0  0  0  0  0
   -8.1385  -16.0926   25.5283 H   0  0  0  0  0  0  0  0  0  0  0  0
   -9.1575  -14.8809   26.3231 H   0  0  0  0  0  0  0  0  0  0  0  0
   -9.5279  -17.2212   27.1941 H   0  0  0  0  0  0  0  0  0  0  0  0
   -9.1117  -16.0843   28.4420 H   0  0  0  0  0  0  0  0  0  0  0  0
   -7.7598  -18.3191   28.5473 H   0  0  0  0  0  0  0  0  0  0  0  0
   -6.9903  -17.8338   27.0613 H   0  0  0  0  0  0  0  0  0  0  0  0
   -5.5464  -17.1318   28.8512 H   0  0  0  0  0  0  0  0  0  0  0  0
   -6.8834  -16.3727   29.7360 H   0  0  0  0  0  0  0  0  0  0  0  0
  1  2  2  0
  2  3  1  0
  3  4  1  0
  4  5  1  0
  5  6  2  0
  6  7  1  0
  7  8  2  0
  8  9  1  0
  2 10  1  0
 10 11  2  0
 11 12  1  0
 12 13  2  0
 13 14  1  0
 14 15  1  0
 15 16  2  0
 16 17  1  0
 17 18  2  0
 16 19  1  0
 19 20  1  0
 20 21  1  0
 21 22  1  0
  9  5  1  0
 18 10  1  0
 17 13  1  0
 22 15  1  0
  4 23  1  0
  4 24  1  0
  7 25  1  0
  8 26  1  0
 11 27  1  0
 12 28  1  0
 14 29  1  0
 18 30  1  0
 19 31  1  0
 19 32  1  0
 20 33  1  0
 20 34  1  0
 21 35  1  0
 21 36  1  0
 22 37  1  0
 22 38  1  0
M  END
>  <Energy>  (215) 
50.843532049541793

>  <compound_id>  (215) 
64909

>  <target_id>  (215) 
1

>  <reference_id>  (215) 
71

>  <inspiration_ids>  (215) 
[71, 39]

>  <energy_score>  (215) 
-34.77429802399246

>  <distance_score>  (215) 
15.446603532081703

>  <path>  (215) 
/opt/xchem-fragalysis-2/maxwin/BulkDock/SCRATCH/511022/C64909-P71/C64909-P71.minimised.mol

>  <scratch_subdir>  (215) 
/opt/xchem-fragalysis-2/maxwin/BulkDock/SCRATCH/511022/C64909-P71

>  <fragmenstein_runtime>  (215) 
18.89085364341736

>  <fragmenstein_outcome>  (215) 
too moved

>  <fragmenstein_mode>  (215) 
expansion

>  <fragmenstein_error>  (215) 


$$$$
C64909-P39
     RDKit          3D

 38 41  0  0  0  0  0  0  0  0999 V2000
   -5.0308  -13.4695   30.5081 O   0  0  0  0  0  0  0  0  0  0  0  0
   -5.3723  -13.7401   29.3695 C   0  0  0  0  0  0  0  0  0  0  0  0
   -5.3023  -12.8995   28.2989 O   0  0  0  0  0  0  0  0  0  0  0  0
   -4.5928  -11.6635   28.5546 C   0  0  0  0  0  0  0  0  0  0  0  0
   -4.5300  -10.8426   27.2791 C   0  0  0  0  0  0  0  0  0  0  0  0
   -4.7945   -9.5500   27.2138 N   0  0  0  0  0  0  0  0  0  0  0  0
   -5.0853   -9.2255   25.9107 C   0  0  0  0  0  0  0  0  0  0  0  0
   -4.7325  -10.1637   24.9685 C   0  0  0  0  0  0  0  0  0  0  0  0
   -4.1921  -11.5697   25.7600 S   0  0  0  0  0  0  0  0  0  0  0  0
   -5.8316  -15.0902   28.9305 C   0  0  0  0  0  0  0  0  0  0  0  0
   -6.8167  -15.2481   27.9499 C   0  0  0  0  0  0  0  0  0  0  0  0
   -6.9990  -16.4768   27.3032 C   0  0  0  0  0  0  0  0  0  0  0  0
   -6.1016  -17.5003   27.6281 C   0  0  0  0  0  0  0  0  0  0  0  0
   -5.8064  -18.6646   26.9574 N   0  0  0  0  0  0  0  0  0  0  0  0
   -4.7575  -19.3065   27.5511 C   0  0  0  0  0  0  0  0  0  0  0  0
   -4.4310  -18.6101   28.6950 C   0  0  0  0  0  0  0  0  0  0  0  0
   -5.2047  -17.4149   28.6917 C   0  0  0  0  0  0  0  0  0  0  0  0
   -5.1168  -16.2040   29.4055 C   0  0  0  0  0  0  0  0  0  0  0  0
   -3.2934  -18.9943   29.5822 C   0  0  0  0  0  0  0  0  0  0  0  0
   -2.7236  -20.3772   29.2156 C   0  0  0  0  0  0  0  0  0  0  0  0
   -2.6563  -20.6073   27.6950 C   0  0  0  0  0  0  0  0  0  0  0  0
   -4.0401  -20.5018   27.0270 C   0  0  0  0  0  0  0  0  0  0  0  0
   -5.1371  -11.0945   29.3172 H   0  0  0  0  0  0  0  0  0  0  0  0
   -3.5814  -11.8772   28.9115 H   0  0  0  0  0  0  0  0  0  0  0  0
   -5.5246   -8.2602   25.6880 H   0  0  0  0  0  0  0  0  0  0  0  0
   -4.8143  -10.0832   23.8944 H   0  0  0  0  0  0  0  0  0  0  0  0
   -7.3893  -14.3854   27.6149 H   0  0  0  0  0  0  0  0  0  0  0  0
   -7.6949  -16.5630   26.4765 H   0  0  0  0  0  0  0  0  0  0  0  0
   -6.1764  -18.8757   26.0476 H   0  0  0  0  0  0  0  0  0  0  0  0
   -4.3638  -16.0856   30.1804 H   0  0  0  0  0  0  0  0  0  0  0  0
   -3.6105  -18.9921   30.6310 H   0  0  0  0  0  0  0  0  0  0  0  0
   -2.4997  -18.2441   29.4779 H   0  0  0  0  0  0  0  0  0  0  0  0
   -3.3473  -21.1577   29.6649 H   0  0  0  0  0  0  0  0  0  0  0  0
   -1.7250  -20.4859   29.6540 H   0  0  0  0  0  0  0  0  0  0  0  0
   -2.2253  -21.5928   27.4856 H   0  0  0  0  0  0  0  0  0  0  0  0
   -1.9804  -19.8628   27.2543 H   0  0  0  0  0  0  0  0  0  0  0  0
   -3.9171  -20.4381   25.9405 H   0  0  0  0  0  0  0  0  0  0  0  0
   -4.6165  -21.4068   27.2446 H   0  0  0  0  0  0  0  0  0  0  0  0
  1  2  2  0
  2  3  1  0
  3  4  1  0
  4  5  1  0
  5  6  2  0
  6  7  1  0
  7  8  2  0
  8  9  1  0
  2 10  1  0
 10 11  2  0
 11 12  1  0
 12 13  2  0
 13 14  1  0
 14 15  1  0
 15 16  2  0
 16 17  1  0
 17 18  2  0
 16 19  1  0
 19 20  1  0
 20 21  1  0
 21 22  1  0
  9  5  1  0
 18 10  1  0
 17 13  1  0
 22 15  1  0
  4 23  1  0
  4 24  1  0
  7 25  1  0
  8 26  1  0
 11 27  1  0
 12 28  1  0
 14 29  1  0
 18 30  1  0
 19 31  1  0
 19 32  1  0
 20 33  1  0
 20 34  1  0
 21 35  1  0
 21 36  1  0
 22 37  1  0
 22 38  1  0
M  END
>  <Energy>  (216) 
52.606435122151204

>  <compound_id>  (216) 
64909

>  <target_id>  (216) 
1

>  <reference_id>  (216) 
39

>  <inspiration_ids>  (216) 
[71, 39]

>  <energy_score>  (216) 
-33.01139495138278

>  <distance_score>  (216) 
15.336487783901806

>  <path>  (216) 
/opt/xchem-fragalysis-2/maxwin/BulkDock/SCRATCH/511022/C64909-P39/C64909-P39.minimised.mol

>  <scratch_subdir>  (216) 
/opt/xchem-fragalysis-2/maxwin/BulkDock/SCRATCH/511022/C64909-P39

>  <fragmenstein_runtime>  (216) 
19.708109855651855

>  <fragmenstein_outcome>  (216) 
too moved

>  <fragmenstein_mode>  (216) 
expansion

>  <fragmenstein_error>  (216) 


$$$$
C64911-P71
     RDKit          3D

 45 48  0  0  0  0  0  0  0  0999 V2000
  -11.7783  -17.3769   29.1702 O   0  0  0  0  0  0  0  0  0  0  0  0
  -10.8662  -18.1136   28.9391 C   0  0  0  0  0  0  0  0  0  0  0  0
   -9.4028  -17.7357   28.2906 N   0  0  0  0  0  0  0  0  0  0  0  0
   -8.8658  -16.4113   27.7299 C   0  0  0  0  0  0  0  0  0  0  0  0
   -7.2779  -16.3010   27.7648 C   0  0  0  0  0  0  0  0  0  0  0  0
   -6.4271  -15.3170   26.8469 C   0  0  0  0  0  0  0  0  0  0  0  0
   -5.5909  -15.7313   25.8995 N   0  0  0  0  0  0  0  0  0  0  0  0
   -4.7202  -14.7240   25.4907 C   0  0  0  0  0  0  0  0  0  0  0  0
   -4.9185  -13.5007   26.0827 C   0  0  0  0  0  0  0  0  0  0  0  0
   -6.2267  -13.6253   27.2011 S   0  0  0  0  0  0  0  0  0  0  0  0
  -11.1001  -20.1645   29.4789 C   0  0  0  0  0  0  0  0  0  0  0  0
  -12.3897  -20.6714   29.5327 C   0  0  0  0  0  0  0  0  0  0  0  0
  -12.8925  -21.9975   29.7211 C   0  0  0  0  0  0  0  0  0  0  0  0
  -12.3850  -22.6417   28.6184 C   0  0  0  0  0  0  0  0  0  0  0  0
  -12.8514  -23.5765   27.7455 N   0  0  0  0  0  0  0  0  0  0  0  0
  -11.7816  -24.2610   27.2327 C   0  0  0  0  0  0  0  0  0  0  0  0
  -10.7657  -23.8413   28.0874 C   0  0  0  0  0  0  0  0  0  0  0  0
  -11.0413  -22.4661   28.3625 C   0  0  0  0  0  0  0  0  0  0  0  0
  -10.5368  -21.3786   29.2142 C   0  0  0  0  0  0  0  0  0  0  0  0
   -9.9821  -24.7539   28.9590 C   0  0  0  0  0  0  0  0  0  0  0  0
  -10.1509  -26.2160   28.6633 C   0  0  0  0  0  0  0  0  0  0  0  0
  -11.6065  -26.6422   28.7123 C   0  0  0  0  0  0  0  0  0  0  0  0
  -12.3440  -26.6689   27.3766 C   0  0  0  0  0  0  0  0  0  0  0  0
  -11.9973  -25.5057   26.4552 C   0  0  0  0  0  0  0  0  0  0  0  0
   -8.8763  -18.5803   28.1399 H   0  0  0  0  0  0  0  0  0  0  0  0
   -9.3348  -15.5978   28.2905 H   0  0  0  0  0  0  0  0  0  0  0  0
   -9.2137  -16.3614   26.6940 H   0  0  0  0  0  0  0  0  0  0  0  0
   -6.8868  -17.3018   27.5318 H   0  0  0  0  0  0  0  0  0  0  0  0
   -6.9805  -16.1091   28.8045 H   0  0  0  0  0  0  0  0  0  0  0  0
   -3.9652  -14.9674   24.7564 H   0  0  0  0  0  0  0  0  0  0  0  0
   -4.3840  -12.5744   25.9342 H   0  0  0  0  0  0  0  0  0  0  0  0
  -13.1046  -19.9466   29.2284 H   0  0  0  0  0  0  0  0  0  0  0  0
  -12.6481  -22.4522   30.6925 H   0  0  0  0  0  0  0  0  0  0  0  0
  -13.8048  -23.9057   27.7201 H   0  0  0  0  0  0  0  0  0  0  0  0
  -10.6246  -21.7712   30.2710 H   0  0  0  0  0  0  0  0  0  0  0  0
  -10.3087  -24.6018   29.9982 H   0  0  0  0  0  0  0  0  0  0  0  0
   -8.9386  -24.5205   28.9440 H   0  0  0  0  0  0  0  0  0  0  0  0
   -9.6885  -26.4561   27.7069 H   0  0  0  0  0  0  0  0  0  0  0  0
   -9.6193  -26.7283   29.4645 H   0  0  0  0  0  0  0  0  0  0  0  0
  -11.7452  -27.6018   29.2082 H   0  0  0  0  0  0  0  0  0  0  0  0
  -12.0664  -25.9017   29.3499 H   0  0  0  0  0  0  0  0  0  0  0  0
  -12.1429  -27.6117   26.8619 H   0  0  0  0  0  0  0  0  0  0  0  0
  -13.4223  -26.6627   27.5825 H   0  0  0  0  0  0  0  0  0  0  0  0
  -11.0996  -25.7410   25.8790 H   0  0  0  0  0  0  0  0  0  0  0  0
  -12.7993  -25.3673   25.7207 H   0  0  0  0  0  0  0  0  0  0  0  0
  1  2  2  0
  2  3  1  0
  3  4  1  0
  4  5  1  0
  5  6  1  0
  6  7  2  0
  7  8  1  0
  8  9  2  0
  9 10  1  0
  2 11  1  0
 11 12  2  0
 12 13  1  0
 13 14  2  0
 14 15  1  0
 15 16  1  0
 16 17  2  0
 17 18  1  0
 18 19  2  0
 17 20  1  0
 20 21  1  0
 21 22  1  0
 22 23  1  0
 23 24  1  0
 10  6  1  0
 19 11  1  0
 18 14  1  0
 24 16  1  0
  3 25  1  0
  4 26  1  0
  4 27  1  0
  5 28  1  0
  5 29  1  0
  8 30  1  0
  9 31  1  0
 12 32  1  0
 13 33  1  0
 15 34  1  0
 19 35  1  0
 20 36  1  0
 20 37  1  0
 21 38  1  0
 21 39  1  0
 22 40  1  0
 22 41  1  0
 23 42  1  0
 23 43  1  0
 24 44  1  0
 24 45  1  0
M  END
>  <Energy>  (217) 
359.38489543630766

>  <compound_id>  (217) 
64911

>  <target_id>  (217) 
1

>  <reference_id>  (217) 
71

>  <inspiration_ids>  (217) 
[71, 39]

>  <energy_score>  (217) 
252.60494311211926

>  <distance_score>  (217) 
14.611286603838405

>  <path>  (217) 
/opt/xchem-fragalysis-2/maxwin/BulkDock/SCRATCH/511022/C64911-P71/C64911-P71.minimised.mol

>  <scratch_subdir>  (217) 
/opt/xchem-fragalysis-2/maxwin/BulkDock/SCRATCH/511022/C64911-P71

>  <fragmenstein_runtime>  (217) 
45.70244789123535

>  <fragmenstein_outcome>  (217) 
too moved

>  <fragmenstein_mode>  (217) 
expansion

>  <fragmenstein_error>  (217) 


$$$$
C64911-P39
     RDKit          3D

 45 48  0  0  0  0  0  0  0  0999 V2000
   -8.9255  -14.8497   26.5400 O   0  0  0  0  0  0  0  0  0  0  0  0
   -7.8374  -15.1259   26.9689 C   0  0  0  0  0  0  0  0  0  0  0  0
   -6.5813  -14.3729   26.9348 N   0  0  0  0  0  0  0  0  0  0  0  0
   -6.2776  -12.9714   26.4400 C   0  0  0  0  0  0  0  0  0  0  0  0
   -4.7950  -12.5454   26.2076 C   0  0  0  0  0  0  0  0  0  0  0  0
   -4.4630  -11.1150   25.6321 C   0  0  0  0  0  0  0  0  0  0  0  0
   -3.5616  -10.2884   26.1514 N   0  0  0  0  0  0  0  0  0  0  0  0
   -3.4338   -9.1202   25.4002 C   0  0  0  0  0  0  0  0  0  0  0  0
   -4.1487   -9.0994   24.2296 C   0  0  0  0  0  0  0  0  0  0  0  0
   -5.1437  -10.4986   24.1607 S   0  0  0  0  0  0  0  0  0  0  0  0
   -7.8632  -16.5579   27.6299 C   0  0  0  0  0  0  0  0  0  0  0  0
   -6.9158  -17.1673   28.4286 C   0  0  0  0  0  0  0  0  0  0  0  0
   -7.1123  -18.5101   28.9330 C   0  0  0  0  0  0  0  0  0  0  0  0
   -8.2920  -19.4486   28.5573 C   0  0  0  0  0  0  0  0  0  0  0  0
   -9.9235  -20.4020   29.2234 N   0  0  0  0  0  0  0  0  0  0  0  0
  -10.7560  -21.1458   28.4729 C   0  0  0  0  0  0  0  0  0  0  0  0
   -9.7368  -20.7541   27.6262 C   0  0  0  0  0  0  0  0  0  0  0  0
   -9.1099  -18.7848   27.9069 C   0  0  0  0  0  0  0  0  0  0  0  0
   -8.9986  -17.3752   27.4006 C   0  0  0  0  0  0  0  0  0  0  0  0
   -9.0284  -22.4982   27.6802 C   0  0  0  0  0  0  0  0  0  0  0  0
  -10.0496  -23.7500   27.3710 C   0  0  0  0  0  0  0  0  0  0  0  0
  -11.0430  -24.2077   28.4194 C   0  0  0  0  0  0  0  0  0  0  0  0
  -12.1900  -23.2411   28.4810 C   0  0  0  0  0  0  0  0  0  0  0  0
  -11.7471  -21.9754   29.1487 C   0  0  0  0  0  0  0  0  0  0  0  0
   -5.8813  -14.8736   27.4669 H   0  0  0  0  0  0  0  0  0  0  0  0
   -6.7380  -12.2962   27.1705 H   0  0  0  0  0  0  0  0  0  0  0  0
   -6.8496  -12.8578   25.5125 H   0  0  0  0  0  0  0  0  0  0  0  0
   -4.3072  -13.2840   25.5619 H   0  0  0  0  0  0  0  0  0  0  0  0
   -4.2973  -12.6082   27.1822 H   0  0  0  0  0  0  0  0  0  0  0  0
   -2.7774   -8.3321   25.7508 H   0  0  0  0  0  0  0  0  0  0  0  0
   -4.1937   -8.3294   23.4722 H   0  0  0  0  0  0  0  0  0  0  0  0
   -6.0235  -16.6376   28.7482 H   0  0  0  0  0  0  0  0  0  0  0  0
   -6.3509  -18.8280   29.6507 H   0  0  0  0  0  0  0  0  0  0  0  0
  -10.1222  -20.2965   30.2175 H   0  0  0  0  0  0  0  0  0  0  0  0
   -9.7601  -16.9828   26.7330 H   0  0  0  0  0  0  0  0  0  0  0  0
   -8.6955  -22.7936   28.5970 H   0  0  0  0  0  0  0  0  0  0  0  0
   -8.1417  -22.5893   27.0717 H   0  0  0  0  0  0  0  0  0  0  0  0
  -10.5948  -23.6645   26.4240 H   0  0  0  0  0  0  0  0  0  0  0  0
   -9.4429  -24.6344   27.2483 H   0  0  0  0  0  0  0  0  0  0  0  0
  -11.4375  -25.1870   28.1174 H   0  0  0  0  0  0  0  0  0  0  0  0
  -10.5699  -24.3635   29.3932 H   0  0  0  0  0  0  0  0  0  0  0  0
  -12.5771  -23.0559   27.4764 H   0  0  0  0  0  0  0  0  0  0  0  0
  -13.0042  -23.6894   29.0630 H   0  0  0  0  0  0  0  0  0  0  0  0
  -12.6097  -21.3420   29.3203 H   0  0  0  0  0  0  0  0  0  0  0  0
  -11.4117  -22.2246   30.1648 H   0  0  0  0  0  0  0  0  0  0  0  0
  1  2  2  0
  2  3  1  0
  3  4  1  0
  4  5  1  0
  5  6  1  0
  6  7  2  0
  7  8  1  0
  8  9  2  0
  9 10  1  0
  2 11  1  0
 11 12  2  0
 12 13  1  0
 13 14  2  0
 14 15  1  0
 15 16  1  0
 16 17  2  0
 17 18  1  0
 18 19  2  0
 17 20  1  0
 20 21  1  0
 21 22  1  0
 22 23  1  0
 23 24  1  0
 10  6  1  0
 19 11  1  0
 18 14  1  0
 24 16  1  0
  3 25  1  0
  4 26  1  0
  4 27  1  0
  5 28  1  0
  5 29  1  0
  8 30  1  0
  9 31  1  0
 12 32  1  0
 13 33  1  0
 15 34  1  0
 19 35  1  0
 20 36  1  0
 20 37  1  0
 21 38  1  0
 21 39  1  0
 22 40  1  0
 22 41  1  0
 23 42  1  0
 23 43  1  0
 24 44  1  0
 24 45  1  0
M  END
>  <Energy>  (218) 
561.04874222975036

>  <compound_id>  (218) 
64911

>  <target_id>  (218) 
1

>  <reference_id>  (218) 
39

>  <inspiration_ids>  (218) 
[71, 39]

>  <energy_score>  (218) 
454.2687899055515

>  <distance_score>  (218) 
13.820261940439526

>  <path>  (218) 
/opt/xchem-fragalysis-2/maxwin/BulkDock/SCRATCH/511022/C64911-P39/C64911-P39.minimised.mol

>  <scratch_subdir>  (218) 
/opt/xchem-fragalysis-2/maxwin/BulkDock/SCRATCH/511022/C64911-P39

>  <fragmenstein_runtime>  (218) 
27.83474373817444

>  <fragmenstein_outcome>  (218) 
too moved

>  <fragmenstein_mode>  (218) 
expansion

>  <fragmenstein_error>  (218) 


$$$$
C64913-P71
     RDKit          3D

 48 51  0  0  0  0  0  0  0  0999 V2000
   -7.2776  -18.9633   22.5815 C   0  0  0  0  0  0  0  0  0  0  0  0
   -8.6668  -19.0503   21.9718 C   0  0  0  0  0  0  0  0  0  0  0  0
   -8.7635  -17.9425   21.0996 N   0  0  0  0  0  0  0  0  0  0  0  0
   -9.7600  -18.1026   20.2832 C   0  0  0  0  0  0  0  0  0  0  0  0
  -10.7379  -19.4744   20.5521 S   0  0  0  0  0  0  0  0  0  0  0  0
   -9.8370  -19.9578   22.0219 C   0  0  0  0  0  0  0  0  0  0  0  0
  -10.4639  -21.4857   22.7779 C   0  0  0  0  0  0  0  0  0  0  0  0
  -11.8654  -21.8273   23.8943 C   0  0  0  0  0  0  0  0  0  0  0  0
  -11.8577  -22.9740   25.2535 N   0  0  0  0  0  0  0  0  0  0  0  0
  -11.7528  -22.4655   26.6346 C   0  0  0  0  0  0  0  0  0  0  0  0
  -11.9400  -24.3333   25.2264 C   0  0  0  0  0  0  0  0  0  0  0  0
  -10.9709  -25.0744   25.1542 O   0  0  0  0  0  0  0  0  0  0  0  0
  -13.2579  -24.9866   25.4110 C   0  0  0  0  0  0  0  0  0  0  0  0
  -14.4737  -24.3876   25.1208 C   0  0  0  0  0  0  0  0  0  0  0  0
  -15.6686  -24.9808   25.5431 C   0  0  0  0  0  0  0  0  0  0  0  0
  -15.5823  -26.1506   26.3096 C   0  0  0  0  0  0  0  0  0  0  0  0
  -16.5733  -26.8970   26.9063 N   0  0  0  0  0  0  0  0  0  0  0  0
  -16.0196  -27.9608   27.5617 C   0  0  0  0  0  0  0  0  0  0  0  0
  -14.6528  -27.9124   27.4030 C   0  0  0  0  0  0  0  0  0  0  0  0
  -14.3710  -26.7696   26.6153 C   0  0  0  0  0  0  0  0  0  0  0  0
  -13.1944  -26.1901   26.1408 C   0  0  0  0  0  0  0  0  0  0  0  0
  -13.7377  -28.9403   27.9757 C   0  0  0  0  0  0  0  0  0  0  0  0
  -14.4548  -29.7940   29.0397 C   0  0  0  0  0  0  0  0  0  0  0  0
  -15.8751  -30.2014   28.6026 C   0  0  0  0  0  0  0  0  0  0  0  0
  -16.7764  -28.9800   28.3372 C   0  0  0  0  0  0  0  0  0  0  0  0
   -6.5923  -18.4345   21.9082 H   0  0  0  0  0  0  0  0  0  0  0  0
   -7.3108  -18.4034   23.5158 H   0  0  0  0  0  0  0  0  0  0  0  0
   -6.8571  -19.9510   22.7236 H   0  0  0  0  0  0  0  0  0  0  0  0
   -9.9680  -17.4147   19.4752 H   0  0  0  0  0  0  0  0  0  0  0  0
  -10.8648  -21.9340   21.8582 H   0  0  0  0  0  0  0  0  0  0  0  0
   -9.6087  -22.1071   23.0499 H   0  0  0  0  0  0  0  0  0  0  0  0
  -12.6488  -22.2379   23.2512 H   0  0  0  0  0  0  0  0  0  0  0  0
  -12.1796  -20.8752   24.3180 H   0  0  0  0  0  0  0  0  0  0  0  0
  -10.9614  -23.0201   27.1561 H   0  0  0  0  0  0  0  0  0  0  0  0
  -11.5818  -21.4089   26.7161 H   0  0  0  0  0  0  0  0  0  0  0  0
  -12.6363  -22.7812   27.2022 H   0  0  0  0  0  0  0  0  0  0  0  0
  -14.4962  -23.4282   24.6103 H   0  0  0  0  0  0  0  0  0  0  0  0
  -16.6264  -24.5133   25.3349 H   0  0  0  0  0  0  0  0  0  0  0  0
  -17.5603  -26.6847   26.8590 H   0  0  0  0  0  0  0  0  0  0  0  0
  -12.2374  -26.6353   26.3994 H   0  0  0  0  0  0  0  0  0  0  0  0
  -13.3880  -29.5911   27.1650 H   0  0  0  0  0  0  0  0  0  0  0  0
  -12.8567  -28.4646   28.4196 H   0  0  0  0  0  0  0  0  0  0  0  0
  -14.5240  -29.2276   29.9768 H   0  0  0  0  0  0  0  0  0  0  0  0
  -13.8574  -30.6878   29.2519 H   0  0  0  0  0  0  0  0  0  0  0  0
  -15.8036  -30.8071   27.6898 H   0  0  0  0  0  0  0  0  0  0  0  0
  -16.3353  -30.8337   29.3702 H   0  0  0  0  0  0  0  0  0  0  0  0
  -17.0896  -28.5423   29.2925 H   0  0  0  0  0  0  0  0  0  0  0  0
  -17.6784  -29.2932   27.8006 H   0  0  0  0  0  0  0  0  0  0  0  0
  1  2  1  0
  2  3  1  0
  3  4  2  0
  4  5  1  0
  5  6  1  0
  6  7  1  0
  7  8  1  0
  8  9  1  0
  9 10  1  0
  9 11  1  0
 11 12  2  0
 11 13  1  0
 13 14  2  0
 14 15  1  0
 15 16  2  0
 16 17  1  0
 17 18  1  0
 18 19  2  0
 19 20  1  0
 20 21  2  0
 19 22  1  0
 22 23  1  0
 23 24  1  0
 24 25  1  0
  6  2  2  0
 21 13  1  0
 20 16  1  0
 25 18  1  0
  1 26  1  0
  1 27  1  0
  1 28  1  0
  4 29  1  0
  7 30  1  0
  7 31  1  0
  8 32  1  0
  8 33  1  0
 10 34  1  0
 10 35  1  0
 10 36  1  0
 14 37  1  0
 15 38  1  0
 17 39  1  0
 21 40  1  0
 22 41  1  0
 22 42  1  0
 23 43  1  0
 23 44  1  0
 24 45  1  0
 24 46  1  0
 25 47  1  0
 25 48  1  0
M  END
>  <Energy>  (219) 
177.18919269889579

>  <compound_id>  (219) 
64913

>  <target_id>  (219) 
1

>  <reference_id>  (219) 
71

>  <inspiration_ids>  (219) 
[71, 39]

>  <energy_score>  (219) 
25.195899632085002

>  <distance_score>  (219) 
18.636961265316003

>  <path>  (219) 
/opt/xchem-fragalysis-2/maxwin/BulkDock/SCRATCH/511022/C64913-P71/C64913-P71.minimised.mol

>  <scratch_subdir>  (219) 
/opt/xchem-fragalysis-2/maxwin/BulkDock/SCRATCH/511022/C64913-P71

>  <fragmenstein_runtime>  (219) 
34.39606022834778

>  <fragmenstein_outcome>  (219) 
too moved

>  <fragmenstein_mode>  (219) 
expansion

>  <fragmenstein_error>  (219) 


$$$$
C64913-P39
     RDKit          3D

 48 51  0  0  0  0  0  0  0  0999 V2000
    0.4087  -13.4749   25.8510 C   0  0  0  0  0  0  0  0  0  0  0  0
   -1.6173  -14.0546   25.6797 C   0  0  0  0  0  0  0  0  0  0  0  0
   -2.5414  -12.8694   25.4555 N   0  0  0  0  0  0  0  0  0  0  0  0
   -3.8211  -13.0871   25.6191 C   0  0  0  0  0  0  0  0  0  0  0  0
   -4.3775  -14.6567   25.8640 S   0  0  0  0  0  0  0  0  0  0  0  0
   -2.7749  -15.3933   26.0307 C   0  0  0  0  0  0  0  0  0  0  0  0
   -3.1212  -17.3310   26.2506 C   0  0  0  0  0  0  0  0  0  0  0  0
   -4.2723  -18.6005   27.3148 C   0  0  0  0  0  0  0  0  0  0  0  0
   -4.9778  -20.3927   26.6379 N   0  0  0  0  0  0  0  0  0  0  0  0
   -4.6790  -19.5430   27.6620 C   0  0  0  0  0  0  0  0  0  0  0  0
   -5.6127  -21.9705   27.3875 C   0  0  0  0  0  0  0  0  0  0  0  0
   -4.6901  -22.7737   27.5822 O   0  0  0  0  0  0  0  0  0  0  0  0
   -7.4668  -22.6562   27.7673 C   0  0  0  0  0  0  0  0  0  0  0  0
   -8.5412  -21.9597   27.4981 C   0  0  0  0  0  0  0  0  0  0  0  0
  -10.1293  -21.8235   27.9877 C   0  0  0  0  0  0  0  0  0  0  0  0
  -10.8722  -22.9197   28.2489 C   0  0  0  0  0  0  0  0  0  0  0  0
  -12.1932  -23.2004   28.2232 N   0  0  0  0  0  0  0  0  0  0  0  0
  -12.2919  -24.5238   27.9203 C   0  0  0  0  0  0  0  0  0  0  0  0
  -11.0587  -25.1035   28.1732 C   0  0  0  0  0  0  0  0  0  0  0  0
  -10.1483  -24.0504   28.3349 C   0  0  0  0  0  0  0  0  0  0  0  0
   -8.7142  -23.8370   28.2564 C   0  0  0  0  0  0  0  0  0  0  0  0
  -10.7562  -26.4456   27.6679 C   0  0  0  0  0  0  0  0  0  0  0  0
  -11.3824  -26.4969   26.2675 C   0  0  0  0  0  0  0  0  0  0  0  0
  -12.9154  -26.3849   26.4162 C   0  0  0  0  0  0  0  0  0  0  0  0
  -13.3531  -25.0709   27.0402 C   0  0  0  0  0  0  0  0  0  0  0  0
    1.0362  -13.9976   26.6051 H   0  0  0  0  0  0  0  0  0  0  0  0
    0.7900  -13.9268   24.9197 H   0  0  0  0  0  0  0  0  0  0  0  0
    0.6734  -12.4131   26.1477 H   0  0  0  0  0  0  0  0  0  0  0  0
   -4.5285  -12.2708   25.5508 H   0  0  0  0  0  0  0  0  0  0  0  0
   -2.1368  -17.7440   26.4935 H   0  0  0  0  0  0  0  0  0  0  0  0
   -3.3970  -17.5869   25.2178 H   0  0  0  0  0  0  0  0  0  0  0  0
   -5.1482  -17.8106   27.2468 H   0  0  0  0  0  0  0  0  0  0  0  0
   -3.5174  -18.4032   28.2670 H   0  0  0  0  0  0  0  0  0  0  0  0
   -5.8317  -19.4578   27.8509 H   0  0  0  0  0  0  0  0  0  0  0  0
   -4.8089  -19.7601   28.8085 H   0  0  0  0  0  0  0  0  0  0  0  0
   -3.8729  -20.3369   27.9675 H   0  0  0  0  0  0  0  0  0  0  0  0
   -8.4580  -22.7499   26.6368 H   0  0  0  0  0  0  0  0  0  0  0  0
  -10.6833  -21.0254   27.5711 H   0  0  0  0  0  0  0  0  0  0  0  0
  -12.8753  -22.5181   27.9667 H   0  0  0  0  0  0  0  0  0  0  0  0
   -8.4101  -24.8379   28.6849 H   0  0  0  0  0  0  0  0  0  0  0  0
  -11.1964  -27.1979   28.3294 H   0  0  0  0  0  0  0  0  0  0  0  0
   -9.6784  -26.6012   27.6124 H   0  0  0  0  0  0  0  0  0  0  0  0
  -11.0416  -27.3948   25.7582 H   0  0  0  0  0  0  0  0  0  0  0  0
  -11.0383  -25.6628   25.6414 H   0  0  0  0  0  0  0  0  0  0  0  0
  -13.4094  -26.4958   25.4444 H   0  0  0  0  0  0  0  0  0  0  0  0
  -13.2821  -27.1770   27.0792 H   0  0  0  0  0  0  0  0  0  0  0  0
  -14.2959  -25.2033   27.5743 H   0  0  0  0  0  0  0  0  0  0  0  0
  -13.5142  -24.3714   26.2107 H   0  0  0  0  0  0  0  0  0  0  0  0
  1  2  1  0
  2  3  1  0
  3  4  2  0
  4  5  1  0
  5  6  1  0
  6  7  1  0
  7  8  1  0
  8  9  1  0
  9 10  1  0
  9 11  1  0
 11 12  2  0
 11 13  1  0
 13 14  2  0
 14 15  1  0
 15 16  2  0
 16 17  1  0
 17 18  1  0
 18 19  2  0
 19 20  1  0
 20 21  2  0
 19 22  1  0
 22 23  1  0
 23 24  1  0
 24 25  1  0
  6  2  2  0
 21 13  1  0
 20 16  1  0
 25 18  1  0
  1 26  1  0
  1 27  1  0
  1 28  1  0
  4 29  1  0
  7 30  1  0
  7 31  1  0
  8 32  1  0
  8 33  1  0
 10 34  1  0
 10 35  1  0
 10 36  1  0
 14 37  1  0
 15 38  1  0
 17 39  1  0
 21 40  1  0
 22 41  1  0
 22 42  1  0
 23 43  1  0
 23 44  1  0
 24 45  1  0
 24 46  1  0
 25 47  1  0
 25 48  1  0
M  END
>  <Energy>  (220) 
1348.6207200079937

>  <compound_id>  (220) 
64913

>  <target_id>  (220) 
1

>  <reference_id>  (220) 
39

>  <inspiration_ids>  (220) 
[71, 39]

>  <energy_score>  (220) 
1196.6274269411742

>  <distance_score>  (220) 
14.150429307491628

>  <path>  (220) 
/opt/xchem-fragalysis-2/maxwin/BulkDock/SCRATCH/511022/C64913-P39/C64913-P39.minimised.mol

>  <scratch_subdir>  (220) 
/opt/xchem-fragalysis-2/maxwin/BulkDock/SCRATCH/511022/C64913-P39

>  <fragmenstein_runtime>  (220) 
27.860854387283325

>  <fragmenstein_outcome>  (220) 
too moved

>  <fragmenstein_mode>  (220) 
expansion

>  <fragmenstein_error>  (220) 


$$$$
C54495-P71
     RDKit          3D

 41 44  0  0  0  0  0  0  0  0999 V2000
   -6.4187  -22.6162   27.7076 C   0  0  0  0  0  0  0  0  0  0  0  0
   -7.0493  -23.0916   26.4747 C   0  0  0  0  0  0  0  0  0  0  0  0
   -8.8385  -23.5745   26.8584 O   0  0  0  0  0  0  0  0  0  0  0  0
  -10.1391  -24.0211   26.5863 C   0  0  0  0  0  0  0  0  0  0  0  0
  -10.6188  -24.4638   25.5533 O   0  0  0  0  0  0  0  0  0  0  0  0
  -10.9488  -23.7846   27.7502 C   0  0  0  0  0  0  0  0  0  0  0  0
  -11.5903  -22.5510   27.7905 C   0  0  0  0  0  0  0  0  0  0  0  0
  -12.0414  -22.0220   28.9737 C   0  0  0  0  0  0  0  0  0  0  0  0
  -11.8964  -22.8255   30.0698 C   0  0  0  0  0  0  0  0  0  0  0  0
  -12.1747  -22.5295   31.3707 N   0  0  0  0  0  0  0  0  0  0  0  0
  -11.8584  -23.6048   32.1136 C   0  0  0  0  0  0  0  0  0  0  0  0
  -11.3110  -24.5789   31.3127 C   0  0  0  0  0  0  0  0  0  0  0  0
  -11.3596  -24.1145   30.0068 C   0  0  0  0  0  0  0  0  0  0  0  0
  -10.8725  -24.6438   28.8191 C   0  0  0  0  0  0  0  0  0  0  0  0
  -10.7733  -25.8469   31.8147 C   0  0  0  0  0  0  0  0  0  0  0  0
  -10.4921  -25.7290   33.2913 C   0  0  0  0  0  0  0  0  0  0  0  0
  -10.8803  -24.4832   34.0170 C   0  0  0  0  0  0  0  0  0  0  0  0
  -12.0771  -23.7081   33.5564 C   0  0  0  0  0  0  0  0  0  0  0  0
   -5.6666  -23.2785   25.3445 C   0  0  0  0  0  0  0  0  0  0  0  0
   -5.4780  -23.6028   23.9890 C   0  0  0  0  0  0  0  0  0  0  0  0
   -4.3510  -23.0766   23.3142 N   0  0  0  0  0  0  0  0  0  0  0  0
   -3.5603  -22.4413   24.1368 C   0  0  0  0  0  0  0  0  0  0  0  0
   -4.0572  -22.4453   25.7683 S   0  0  0  0  0  0  0  0  0  0  0  0
   -7.3066  -22.3074   28.2180 H   0  0  0  0  0  0  0  0  0  0  0  0
   -5.7035  -21.8055   27.5764 H   0  0  0  0  0  0  0  0  0  0  0  0
   -5.8615  -23.3556   28.2330 H   0  0  0  0  0  0  0  0  0  0  0  0
   -7.5607  -22.2515   26.3350 H   0  0  0  0  0  0  0  0  0  0  0  0
  -11.6401  -21.9401   26.9003 H   0  0  0  0  0  0  0  0  0  0  0  0
  -12.3976  -21.0106   29.0549 H   0  0  0  0  0  0  0  0  0  0  0  0
  -12.6079  -21.6897   31.7202 H   0  0  0  0  0  0  0  0  0  0  0  0
  -10.3487  -25.5905   28.7742 H   0  0  0  0  0  0  0  0  0  0  0  0
   -9.8507  -26.1079   31.2847 H   0  0  0  0  0  0  0  0  0  0  0  0
  -11.4597  -26.6769   31.6342 H   0  0  0  0  0  0  0  0  0  0  0  0
  -10.8986  -26.5888   33.8202 H   0  0  0  0  0  0  0  0  0  0  0  0
   -9.4022  -25.6930   33.3894 H   0  0  0  0  0  0  0  0  0  0  0  0
  -10.0222  -23.8425   33.7711 H   0  0  0  0  0  0  0  0  0  0  0  0
  -10.9405  -24.7149   35.0799 H   0  0  0  0  0  0  0  0  0  0  0  0
  -12.9991  -24.2263   33.8096 H   0  0  0  0  0  0  0  0  0  0  0  0
  -12.1122  -22.7232   34.0328 H   0  0  0  0  0  0  0  0  0  0  0  0
   -6.2172  -24.1060   23.3808 H   0  0  0  0  0  0  0  0  0  0  0  0
   -2.6364  -21.9804   23.8126 H   0  0  0  0  0  0  0  0  0  0  0  0
  1  2  1  0
  2  3  1  0
  3  4  1  0
  4  5  2  0
  4  6  1  0
  6  7  2  0
  7  8  1  0
  8  9  2  0
  9 10  1  0
 10 11  1  0
 11 12  2  0
 12 13  1  0
 13 14  2  0
 12 15  1  0
 15 16  1  0
 16 17  1  0
 17 18  1  0
  2 19  1  0
 19 20  2  0
 20 21  1  0
 21 22  2  0
 22 23  1  0
 14  6  1  0
 23 19  1  0
 13  9  1  0
 18 11  1  0
  1 24  1  0
  1 25  1  0
  1 26  1  0
  2 27  1  0
  7 28  1  0
  8 29  1  0
 10 30  1  0
 14 31  1  0
 15 32  1  0
 15 33  1  0
 16 34  1  0
 16 35  1  0
 17 36  1  0
 17 37  1  0
 18 38  1  0
 18 39  1  0
 20 40  1  0
 22 41  1  0
M  END
>  <Energy>  (221) 
247.24227000414251

>  <compound_id>  (221) 
54495

>  <target_id>  (221) 
1

>  <reference_id>  (221) 
71

>  <inspiration_ids>  (221) 
[71, 39]

>  <energy_score>  (221) 
122.38892067413451

>  <distance_score>  (221) 
17.144478780027477

>  <path>  (221) 
/opt/xchem-fragalysis-2/maxwin/BulkDock/SCRATCH/511022/C54495-P71/C54495-P71.minimised.mol

>  <scratch_subdir>  (221) 
/opt/xchem-fragalysis-2/maxwin/BulkDock/SCRATCH/511022/C54495-P71

>  <fragmenstein_runtime>  (221) 
26.146880626678467

>  <fragmenstein_outcome>  (221) 
too moved

>  <fragmenstein_mode>  (221) 
expansion

>  <fragmenstein_error>  (221) 


$$$$
C54495-P39
     RDKit          3D

 41 44  0  0  0  0  0  0  0  0999 V2000
    2.6390  -14.5665   19.3889 C   0  0  0  0  0  0  0  0  0  0  0  0
    3.1137  -13.8637   21.2413 C   0  0  0  0  0  0  0  0  0  0  0  0
    2.3537  -14.4738   23.0067 O   0  0  0  0  0  0  0  0  0  0  0  0
    1.0123  -14.0051   24.1556 C   0  0  0  0  0  0  0  0  0  0  0  0
    1.5201  -13.2744   25.1256 O   0  0  0  0  0  0  0  0  0  0  0  0
   -0.8876  -14.3625   24.5318 C   0  0  0  0  0  0  0  0  0  0  0  0
   -2.0402  -15.3755   24.4358 C   0  0  0  0  0  0  0  0  0  0  0  0
   -3.2600  -15.7616   25.2091 C   0  0  0  0  0  0  0  0  0  0  0  0
   -3.5365  -15.0549   26.3455 C   0  0  0  0  0  0  0  0  0  0  0  0
   -4.5520  -15.2177   27.2585 N   0  0  0  0  0  0  0  0  0  0  0  0
   -4.4032  -14.2870   28.2399 C   0  0  0  0  0  0  0  0  0  0  0  0
   -3.3092  -13.4975   27.9242 C   0  0  0  0  0  0  0  0  0  0  0  0
   -2.7500  -13.9619   26.6954 C   0  0  0  0  0  0  0  0  0  0  0  0
   -1.5700  -13.6115   25.8695 C   0  0  0  0  0  0  0  0  0  0  0  0
   -2.8444  -12.3935   28.8155 C   0  0  0  0  0  0  0  0  0  0  0  0
   -3.9300  -12.0110   29.8403 C   0  0  0  0  0  0  0  0  0  0  0  0
   -4.5906  -13.2480   30.4782 C   0  0  0  0  0  0  0  0  0  0  0  0
   -5.2797  -14.1446   29.4329 C   0  0  0  0  0  0  0  0  0  0  0  0
    4.5436  -12.8655   20.6677 C   0  0  0  0  0  0  0  0  0  0  0  0
    5.2235  -13.1236   19.5190 C   0  0  0  0  0  0  0  0  0  0  0  0
    5.7787  -12.0630   18.8601 N   0  0  0  0  0  0  0  0  0  0  0  0
    6.4105  -11.3246   19.6510 C   0  0  0  0  0  0  0  0  0  0  0  0
    5.6178  -11.5984   20.9805 S   0  0  0  0  0  0  0  0  0  0  0  0
    1.9594  -14.1977   18.5870 H   0  0  0  0  0  0  0  0  0  0  0  0
    3.1465  -15.3861   18.8569 H   0  0  0  0  0  0  0  0  0  0  0  0
    3.3656  -13.9797   18.7789 H   0  0  0  0  0  0  0  0  0  0  0  0
    3.5030  -14.6520   21.7703 H   0  0  0  0  0  0  0  0  0  0  0  0
   -2.5334  -15.3244   23.4652 H   0  0  0  0  0  0  0  0  0  0  0  0
   -3.9606  -16.4837   24.8016 H   0  0  0  0  0  0  0  0  0  0  0  0
   -5.2560  -15.9423   27.2277 H   0  0  0  0  0  0  0  0  0  0  0  0
   -0.9217  -12.8871   26.3816 H   0  0  0  0  0  0  0  0  0  0  0  0
   -2.5705  -11.5123   28.2247 H   0  0  0  0  0  0  0  0  0  0  0  0
   -1.9448  -12.7269   29.3472 H   0  0  0  0  0  0  0  0  0  0  0  0
   -4.7044  -11.4117   29.3443 H   0  0  0  0  0  0  0  0  0  0  0  0
   -3.4880  -11.3802   30.6198 H   0  0  0  0  0  0  0  0  0  0  0  0
   -5.3243  -12.9347   31.2295 H   0  0  0  0  0  0  0  0  0  0  0  0
   -3.8213  -13.8274   31.0052 H   0  0  0  0  0  0  0  0  0  0  0  0
   -6.2277  -13.6866   29.1266 H   0  0  0  0  0  0  0  0  0  0  0  0
   -5.5077  -15.1214   29.8730 H   0  0  0  0  0  0  0  0  0  0  0  0
    5.1342  -14.0330   18.9698 H   0  0  0  0  0  0  0  0  0  0  0  0
    7.1815  -10.6242   19.3458 H   0  0  0  0  0  0  0  0  0  0  0  0
  1  2  1  0
  2  3  1  0
  3  4  1  0
  4  5  2  0
  4  6  1  0
  6  7  2  0
  7  8  1  0
  8  9  2  0
  9 10  1  0
 10 11  1  0
 11 12  2  0
 12 13  1  0
 13 14  2  0
 12 15  1  0
 15 16  1  0
 16 17  1  0
 17 18  1  0
  2 19  1  0
 19 20  2  0
 20 21  1  0
 21 22  2  0
 22 23  1  0
 14  6  1  0
 23 19  1  0
 13  9  1  0
 18 11  1  0
  1 24  1  0
  1 25  1  0
  1 26  1  0
  2 27  1  0
  7 28  1  0
  8 29  1  0
 10 30  1  0
 14 31  1  0
 15 32  1  0
 15 33  1  0
 16 34  1  0
 16 35  1  0
 17 36  1  0
 17 37  1  0
 18 38  1  0
 18 39  1  0
 20 40  1  0
 22 41  1  0
M  END
>  <Energy>  (222) 
686.91506350477221

>  <compound_id>  (222) 
54495

>  <target_id>  (222) 
1

>  <reference_id>  (222) 
39

>  <inspiration_ids>  (222) 
[71, 39]

>  <energy_score>  (222) 
562.0617141747585

>  <distance_score>  (222) 
14.705709244674425

>  <path>  (222) 
/opt/xchem-fragalysis-2/maxwin/BulkDock/SCRATCH/511022/C54495-P39/C54495-P39.minimised.mol

>  <scratch_subdir>  (222) 
/opt/xchem-fragalysis-2/maxwin/BulkDock/SCRATCH/511022/C54495-P39

>  <fragmenstein_runtime>  (222) 
34.410895109176636

>  <fragmenstein_outcome>  (222) 
too moved

>  <fragmenstein_mode>  (222) 
expansion

>  <fragmenstein_error>  (222) 


$$$$
C64913-P71
     RDKit          3D

 48 51  0  0  0  0  0  0  0  0999 V2000
   -7.2776  -18.9633   22.5815 C   0  0  0  0  0  0  0  0  0  0  0  0
   -8.6668  -19.0503   21.9718 C   0  0  0  0  0  0  0  0  0  0  0  0
   -8.7635  -17.9425   21.0996 N   0  0  0  0  0  0  0  0  0  0  0  0
   -9.7600  -18.1026   20.2832 C   0  0  0  0  0  0  0  0  0  0  0  0
  -10.7379  -19.4744   20.5521 S   0  0  0  0  0  0  0  0  0  0  0  0
   -9.8370  -19.9578   22.0219 C   0  0  0  0  0  0  0  0  0  0  0  0
  -10.4639  -21.4857   22.7779 C   0  0  0  0  0  0  0  0  0  0  0  0
  -11.8654  -21.8273   23.8943 C   0  0  0  0  0  0  0  0  0  0  0  0
  -11.8577  -22.9740   25.2535 N   0  0  0  0  0  0  0  0  0  0  0  0
  -11.7528  -22.4655   26.6346 C   0  0  0  0  0  0  0  0  0  0  0  0
  -11.9400  -24.3333   25.2264 C   0  0  0  0  0  0  0  0  0  0  0  0
  -10.9709  -25.0744   25.1542 O   0  0  0  0  0  0  0  0  0  0  0  0
  -13.2579  -24.9866   25.4110 C   0  0  0  0  0  0  0  0  0  0  0  0
  -14.4737  -24.3876   25.1208 C   0  0  0  0  0  0  0  0  0  0  0  0
  -15.6686  -24.9808   25.5431 C   0  0  0  0  0  0  0  0  0  0  0  0
  -15.5823  -26.1506   26.3096 C   0  0  0  0  0  0  0  0  0  0  0  0
  -16.5733  -26.8970   26.9063 N   0  0  0  0  0  0  0  0  0  0  0  0
  -16.0196  -27.9608   27.5617 C   0  0  0  0  0  0  0  0  0  0  0  0
  -14.6528  -27.9124   27.4030 C   0  0  0  0  0  0  0  0  0  0  0  0
  -14.3710  -26.7696   26.6153 C   0  0  0  0  0  0  0  0  0  0  0  0
  -13.1944  -26.1901   26.1408 C   0  0  0  0  0  0  0  0  0  0  0  0
  -13.7377  -28.9403   27.9757 C   0  0  0  0  0  0  0  0  0  0  0  0
  -14.4548  -29.7940   29.0397 C   0  0  0  0  0  0  0  0  0  0  0  0
  -15.8751  -30.2014   28.6026 C   0  0  0  0  0  0  0  0  0  0  0  0
  -16.7764  -28.9800   28.3372 C   0  0  0  0  0  0  0  0  0  0  0  0
   -6.5923  -18.4345   21.9082 H   0  0  0  0  0  0  0  0  0  0  0  0
   -7.3108  -18.4034   23.5158 H   0  0  0  0  0  0  0  0  0  0  0  0
   -6.8571  -19.9510   22.7236 H   0  0  0  0  0  0  0  0  0  0  0  0
   -9.9680  -17.4147   19.4752 H   0  0  0  0  0  0  0  0  0  0  0  0
  -10.8648  -21.9340   21.8582 H   0  0  0  0  0  0  0  0  0  0  0  0
   -9.6087  -22.1071   23.0499 H   0  0  0  0  0  0  0  0  0  0  0  0
  -12.6488  -22.2379   23.2512 H   0  0  0  0  0  0  0  0  0  0  0  0
  -12.1796  -20.8752   24.3180 H   0  0  0  0  0  0  0  0  0  0  0  0
  -10.9614  -23.0201   27.1561 H   0  0  0  0  0  0  0  0  0  0  0  0
  -11.5818  -21.4089   26.7161 H   0  0  0  0  0  0  0  0  0  0  0  0
  -12.6363  -22.7812   27.2022 H   0  0  0  0  0  0  0  0  0  0  0  0
  -14.4962  -23.4282   24.6103 H   0  0  0  0  0  0  0  0  0  0  0  0
  -16.6264  -24.5133   25.3349 H   0  0  0  0  0  0  0  0  0  0  0  0
  -17.5603  -26.6847   26.8590 H   0  0  0  0  0  0  0  0  0  0  0  0
  -12.2374  -26.6353   26.3994 H   0  0  0  0  0  0  0  0  0  0  0  0
  -13.3880  -29.5911   27.1650 H   0  0  0  0  0  0  0  0  0  0  0  0
  -12.8567  -28.4646   28.4196 H   0  0  0  0  0  0  0  0  0  0  0  0
  -14.5240  -29.2276   29.9768 H   0  0  0  0  0  0  0  0  0  0  0  0
  -13.8574  -30.6878   29.2519 H   0  0  0  0  0  0  0  0  0  0  0  0
  -15.8036  -30.8071   27.6898 H   0  0  0  0  0  0  0  0  0  0  0  0
  -16.3353  -30.8337   29.3702 H   0  0  0  0  0  0  0  0  0  0  0  0
  -17.0896  -28.5423   29.2925 H   0  0  0  0  0  0  0  0  0  0  0  0
  -17.6784  -29.2932   27.8006 H   0  0  0  0  0  0  0  0  0  0  0  0
  1  2  1  0
  2  3  1  0
  3  4  2  0
  4  5  1  0
  5  6  1  0
  6  7  1  0
  7  8  1  0
  8  9  1  0
  9 10  1  0
  9 11  1  0
 11 12  2  0
 11 13  1  0
 13 14  2  0
 14 15  1  0
 15 16  2  0
 16 17  1  0
 17 18  1  0
 18 19  2  0
 19 20  1  0
 20 21  2  0
 19 22  1  0
 22 23  1  0
 23 24  1  0
 24 25  1  0
  6  2  2  0
 21 13  1  0
 20 16  1  0
 25 18  1  0
  1 26  1  0
  1 27  1  0
  1 28  1  0
  4 29  1  0
  7 30  1  0
  7 31  1  0
  8 32  1  0
  8 33  1  0
 10 34  1  0
 10 35  1  0
 10 36  1  0
 14 37  1  0
 15 38  1  0
 17 39  1  0
 21 40  1  0
 22 41  1  0
 22 42  1  0
 23 43  1  0
 23 44  1  0
 24 45  1  0
 24 46  1  0
 25 47  1  0
 25 48  1  0
M  END
>  <Energy>  (223) 
177.18919269889579

>  <compound_id>  (223) 
64913

>  <target_id>  (223) 
1

>  <reference_id>  (223) 
71

>  <inspiration_ids>  (223) 
[71, 39]

>  <energy_score>  (223) 
25.195899632085002

>  <distance_score>  (223) 
18.636961265316003

>  <path>  (223) 
/opt/xchem-fragalysis-2/maxwin/BulkDock/SCRATCH/511022/C64913-P71/C64913-P71.minimised.mol

>  <scratch_subdir>  (223) 
/opt/xchem-fragalysis-2/maxwin/BulkDock/SCRATCH/511022/C64913-P71

>  <fragmenstein_runtime>  (223) 
34.87464761734009

>  <fragmenstein_outcome>  (223) 
too moved

>  <fragmenstein_mode>  (223) 
expansion

>  <fragmenstein_error>  (223) 


$$$$
C64913-P39
     RDKit          3D

 48 51  0  0  0  0  0  0  0  0999 V2000
    0.4087  -13.4749   25.8510 C   0  0  0  0  0  0  0  0  0  0  0  0
   -1.6173  -14.0546   25.6797 C   0  0  0  0  0  0  0  0  0  0  0  0
   -2.5414  -12.8694   25.4555 N   0  0  0  0  0  0  0  0  0  0  0  0
   -3.8211  -13.0871   25.6191 C   0  0  0  0  0  0  0  0  0  0  0  0
   -4.3775  -14.6567   25.8640 S   0  0  0  0  0  0  0  0  0  0  0  0
   -2.7749  -15.3933   26.0307 C   0  0  0  0  0  0  0  0  0  0  0  0
   -3.1212  -17.3310   26.2506 C   0  0  0  0  0  0  0  0  0  0  0  0
   -4.2723  -18.6005   27.3148 C   0  0  0  0  0  0  0  0  0  0  0  0
   -4.9778  -20.3927   26.6379 N   0  0  0  0  0  0  0  0  0  0  0  0
   -4.6790  -19.5430   27.6620 C   0  0  0  0  0  0  0  0  0  0  0  0
   -5.6127  -21.9705   27.3875 C   0  0  0  0  0  0  0  0  0  0  0  0
   -4.6901  -22.7737   27.5822 O   0  0  0  0  0  0  0  0  0  0  0  0
   -7.4668  -22.6562   27.7673 C   0  0  0  0  0  0  0  0  0  0  0  0
   -8.5412  -21.9597   27.4981 C   0  0  0  0  0  0  0  0  0  0  0  0
  -10.1293  -21.8235   27.9877 C   0  0  0  0  0  0  0  0  0  0  0  0
  -10.8722  -22.9197   28.2489 C   0  0  0  0  0  0  0  0  0  0  0  0
  -12.1932  -23.2004   28.2232 N   0  0  0  0  0  0  0  0  0  0  0  0
  -12.2919  -24.5238   27.9203 C   0  0  0  0  0  0  0  0  0  0  0  0
  -11.0587  -25.1035   28.1732 C   0  0  0  0  0  0  0  0  0  0  0  0
  -10.1483  -24.0504   28.3349 C   0  0  0  0  0  0  0  0  0  0  0  0
   -8.7142  -23.8370   28.2564 C   0  0  0  0  0  0  0  0  0  0  0  0
  -10.7562  -26.4456   27.6679 C   0  0  0  0  0  0  0  0  0  0  0  0
  -11.3824  -26.4969   26.2675 C   0  0  0  0  0  0  0  0  0  0  0  0
  -12.9154  -26.3849   26.4162 C   0  0  0  0  0  0  0  0  0  0  0  0
  -13.3531  -25.0709   27.0402 C   0  0  0  0  0  0  0  0  0  0  0  0
    1.0362  -13.9976   26.6051 H   0  0  0  0  0  0  0  0  0  0  0  0
    0.7900  -13.9268   24.9197 H   0  0  0  0  0  0  0  0  0  0  0  0
    0.6734  -12.4131   26.1477 H   0  0  0  0  0  0  0  0  0  0  0  0
   -4.5285  -12.2708   25.5508 H   0  0  0  0  0  0  0  0  0  0  0  0
   -2.1368  -17.7440   26.4935 H   0  0  0  0  0  0  0  0  0  0  0  0
   -3.3970  -17.5869   25.2178 H   0  0  0  0  0  0  0  0  0  0  0  0
   -5.1482  -17.8106   27.2468 H   0  0  0  0  0  0  0  0  0  0  0  0
   -3.5174  -18.4032   28.2670 H   0  0  0  0  0  0  0  0  0  0  0  0
   -5.8317  -19.4578   27.8509 H   0  0  0  0  0  0  0  0  0  0  0  0
   -4.8089  -19.7601   28.8085 H   0  0  0  0  0  0  0  0  0  0  0  0
   -3.8729  -20.3369   27.9675 H   0  0  0  0  0  0  0  0  0  0  0  0
   -8.4580  -22.7499   26.6368 H   0  0  0  0  0  0  0  0  0  0  0  0
  -10.6833  -21.0254   27.5711 H   0  0  0  0  0  0  0  0  0  0  0  0
  -12.8753  -22.5181   27.9667 H   0  0  0  0  0  0  0  0  0  0  0  0
   -8.4101  -24.8379   28.6849 H   0  0  0  0  0  0  0  0  0  0  0  0
  -11.1964  -27.1979   28.3294 H   0  0  0  0  0  0  0  0  0  0  0  0
   -9.6784  -26.6012   27.6124 H   0  0  0  0  0  0  0  0  0  0  0  0
  -11.0416  -27.3948   25.7582 H   0  0  0  0  0  0  0  0  0  0  0  0
  -11.0383  -25.6628   25.6414 H   0  0  0  0  0  0  0  0  0  0  0  0
  -13.4094  -26.4958   25.4444 H   0  0  0  0  0  0  0  0  0  0  0  0
  -13.2821  -27.1770   27.0792 H   0  0  0  0  0  0  0  0  0  0  0  0
  -14.2959  -25.2033   27.5743 H   0  0  0  0  0  0  0  0  0  0  0  0
  -13.5142  -24.3714   26.2107 H   0  0  0  0  0  0  0  0  0  0  0  0
  1  2  1  0
  2  3  1  0
  3  4  2  0
  4  5  1  0
  5  6  1  0
  6  7  1  0
  7  8  1  0
  8  9  1  0
  9 10  1  0
  9 11  1  0
 11 12  2  0
 11 13  1  0
 13 14  2  0
 14 15  1  0
 15 16  2  0
 16 17  1  0
 17 18  1  0
 18 19  2  0
 19 20  1  0
 20 21  2  0
 19 22  1  0
 22 23  1  0
 23 24  1  0
 24 25  1  0
  6  2  2  0
 21 13  1  0
 20 16  1  0
 25 18  1  0
  1 26  1  0
  1 27  1  0
  1 28  1  0
  4 29  1  0
  7 30  1  0
  7 31  1  0
  8 32  1  0
  8 33  1  0
 10 34  1  0
 10 35  1  0
 10 36  1  0
 14 37  1  0
 15 38  1  0
 17 39  1  0
 21 40  1  0
 22 41  1  0
 22 42  1  0
 23 43  1  0
 23 44  1  0
 24 45  1  0
 24 46  1  0
 25 47  1  0
 25 48  1  0
M  END
>  <Energy>  (224) 
1348.6207200079937

>  <compound_id>  (224) 
64913

>  <target_id>  (224) 
1

>  <reference_id>  (224) 
39

>  <inspiration_ids>  (224) 
[71, 39]

>  <energy_score>  (224) 
1196.6274269411742

>  <distance_score>  (224) 
14.150429307491628

>  <path>  (224) 
/opt/xchem-fragalysis-2/maxwin/BulkDock/SCRATCH/511022/C64913-P39/C64913-P39.minimised.mol

>  <scratch_subdir>  (224) 
/opt/xchem-fragalysis-2/maxwin/BulkDock/SCRATCH/511022/C64913-P39

>  <fragmenstein_runtime>  (224) 
27.598737001419067

>  <fragmenstein_outcome>  (224) 
too moved

>  <fragmenstein_mode>  (224) 
expansion

>  <fragmenstein_error>  (224) 


$$$$
C64908-P71
     RDKit          3D

 41 44  0  0  0  0  0  0  0  0999 V2000
   -3.3277  -18.9039   25.8092 C   0  0  0  0  0  0  0  0  0  0  0  0
   -4.6006  -18.1103   25.7847 C   0  0  0  0  0  0  0  0  0  0  0  0
   -4.4017  -16.8832   25.1131 N   0  0  0  0  0  0  0  0  0  0  0  0
   -5.4252  -16.1004   25.3019 C   0  0  0  0  0  0  0  0  0  0  0  0
   -6.6695  -16.7404   26.2861 S   0  0  0  0  0  0  0  0  0  0  0  0
   -5.9061  -18.3457   26.3680 C   0  0  0  0  0  0  0  0  0  0  0  0
   -6.5677  -19.5148   27.4671 C   0  0  0  0  0  0  0  0  0  0  0  0
   -7.7766  -20.9304   27.3522 O   0  0  0  0  0  0  0  0  0  0  0  0
   -9.2703  -20.6226   27.8325 C   0  0  0  0  0  0  0  0  0  0  0  0
   -9.3267  -19.4035   28.2532 O   0  0  0  0  0  0  0  0  0  0  0  0
  -10.5626  -21.9989   27.8735 C   0  0  0  0  0  0  0  0  0  0  0  0
   -9.7574  -23.1582   28.1639 C   0  0  0  0  0  0  0  0  0  0  0  0
  -10.0751  -24.4755   28.5242 C   0  0  0  0  0  0  0  0  0  0  0  0
  -11.3393  -24.8247   28.2088 C   0  0  0  0  0  0  0  0  0  0  0  0
  -11.8967  -26.0649   28.2941 N   0  0  0  0  0  0  0  0  0  0  0  0
  -13.0091  -26.0834   27.5280 C   0  0  0  0  0  0  0  0  0  0  0  0
  -13.2086  -24.7950   27.0432 C   0  0  0  0  0  0  0  0  0  0  0  0
  -12.2301  -23.9085   27.6665 C   0  0  0  0  0  0  0  0  0  0  0  0
  -11.8515  -22.4731   27.7601 C   0  0  0  0  0  0  0  0  0  0  0  0
  -14.2084  -24.6286   25.9403 C   0  0  0  0  0  0  0  0  0  0  0  0
  -14.4129  -25.9538   25.1738 C   0  0  0  0  0  0  0  0  0  0  0  0
  -14.8262  -27.0697   26.1432 C   0  0  0  0  0  0  0  0  0  0  0  0
  -13.7312  -27.3396   27.1798 C   0  0  0  0  0  0  0  0  0  0  0  0
   -3.5294  -19.9370   26.1077 H   0  0  0  0  0  0  0  0  0  0  0  0
   -2.8616  -18.9192   24.8190 H   0  0  0  0  0  0  0  0  0  0  0  0
   -2.6257  -18.4662   26.5251 H   0  0  0  0  0  0  0  0  0  0  0  0
   -5.4781  -15.0991   24.8972 H   0  0  0  0  0  0  0  0  0  0  0  0
   -5.6309  -20.0675   27.6345 H   0  0  0  0  0  0  0  0  0  0  0  0
   -6.9278  -18.9530   28.3331 H   0  0  0  0  0  0  0  0  0  0  0  0
   -8.6871  -22.9644   28.1901 H   0  0  0  0  0  0  0  0  0  0  0  0
   -9.3413  -25.1840   28.8869 H   0  0  0  0  0  0  0  0  0  0  0  0
  -11.4438  -26.8663   28.7128 H   0  0  0  0  0  0  0  0  0  0  0  0
  -12.6198  -21.7723   27.7246 H   0  0  0  0  0  0  0  0  0  0  0  0
  -13.9054  -23.8379   25.2482 H   0  0  0  0  0  0  0  0  0  0  0  0
  -15.1908  -24.4140   26.3560 H   0  0  0  0  0  0  0  0  0  0  0  0
  -15.1839  -25.8252   24.4078 H   0  0  0  0  0  0  0  0  0  0  0  0
  -13.4850  -26.2488   24.6770 H   0  0  0  0  0  0  0  0  0  0  0  0
  -15.0513  -27.9907   25.5944 H   0  0  0  0  0  0  0  0  0  0  0  0
  -15.7507  -26.7754   26.6567 H   0  0  0  0  0  0  0  0  0  0  0  0
  -13.0151  -28.0591   26.7671 H   0  0  0  0  0  0  0  0  0  0  0  0
  -14.1682  -27.7954   28.0751 H   0  0  0  0  0  0  0  0  0  0  0  0
  1  2  1  0
  2  3  1  0
  3  4  2  0
  4  5  1  0
  5  6  1  0
  6  7  1  0
  7  8  1  0
  8  9  1  0
  9 10  2  0
  9 11  1  0
 11 12  2  0
 12 13  1  0
 13 14  2  0
 14 15  1  0
 15 16  1  0
 16 17  2  0
 17 18  1  0
 18 19  2  0
 17 20  1  0
 20 21  1  0
 21 22  1  0
 22 23  1  0
  6  2  2  0
 19 11  1  0
 18 14  1  0
 23 16  1  0
  1 24  1  0
  1 25  1  0
  1 26  1  0
  4 27  1  0
  7 28  1  0
  7 29  1  0
 12 30  1  0
 13 31  1  0
 15 32  1  0
 19 33  1  0
 20 34  1  0
 20 35  1  0
 21 36  1  0
 21 37  1  0
 22 38  1  0
 22 39  1  0
 23 40  1  0
 23 41  1  0
M  END
>  <Energy>  (225) 
255.37425229391042

>  <compound_id>  (225) 
64908

>  <target_id>  (225) 
1

>  <reference_id>  (225) 
71

>  <inspiration_ids>  (225) 
[71, 39]

>  <energy_score>  (225) 
130.8376102239547

>  <distance_score>  (225) 
16.682976959506654

>  <path>  (225) 
/opt/xchem-fragalysis-2/maxwin/BulkDock/SCRATCH/511022/C64908-P71/C64908-P71.minimised.mol

>  <scratch_subdir>  (225) 
/opt/xchem-fragalysis-2/maxwin/BulkDock/SCRATCH/511022/C64908-P71

>  <fragmenstein_runtime>  (225) 
17.637837171554565

>  <fragmenstein_outcome>  (225) 
too moved

>  <fragmenstein_mode>  (225) 
expansion

>  <fragmenstein_error>  (225) 


$$$$
C64908-P39
     RDKit          3D

 41 44  0  0  0  0  0  0  0  0999 V2000
    0.1786   -6.6186   23.6502 C   0  0  0  0  0  0  0  0  0  0  0  0
   -0.4884   -7.3036   22.5034 C   0  0  0  0  0  0  0  0  0  0  0  0
    0.2340   -7.1965   21.3121 N   0  0  0  0  0  0  0  0  0  0  0  0
   -0.4022   -7.8191   20.3541 C   0  0  0  0  0  0  0  0  0  0  0  0
   -1.8974   -8.5335   20.7872 S   0  0  0  0  0  0  0  0  0  0  0  0
   -1.7291   -7.9885   22.4247 C   0  0  0  0  0  0  0  0  0  0  0  0
   -2.9525   -8.1660   23.4102 C   0  0  0  0  0  0  0  0  0  0  0  0
   -3.2974   -9.5863   23.8003 O   0  0  0  0  0  0  0  0  0  0  0  0
   -4.5989   -9.8419   24.2480 C   0  0  0  0  0  0  0  0  0  0  0  0
   -5.4833   -8.9966   24.1811 O   0  0  0  0  0  0  0  0  0  0  0  0
   -4.9298  -11.2418   24.8533 C   0  0  0  0  0  0  0  0  0  0  0  0
   -4.0377  -11.9659   25.6516 C   0  0  0  0  0  0  0  0  0  0  0  0
   -4.3492  -13.2201   26.2434 C   0  0  0  0  0  0  0  0  0  0  0  0
   -5.6446  -13.7243   26.1028 C   0  0  0  0  0  0  0  0  0  0  0  0
   -6.2278  -14.8601   26.6346 N   0  0  0  0  0  0  0  0  0  0  0  0
   -7.5769  -14.7967   26.4412 C   0  0  0  0  0  0  0  0  0  0  0  0
   -7.8491  -13.7187   25.6180 C   0  0  0  0  0  0  0  0  0  0  0  0
   -6.6194  -13.0206   25.3942 C   0  0  0  0  0  0  0  0  0  0  0  0
   -6.2428  -11.7882   24.7557 C   0  0  0  0  0  0  0  0  0  0  0  0
   -9.2425  -13.2941   25.2814 C   0  0  0  0  0  0  0  0  0  0  0  0
  -10.2933  -14.2592   25.8702 C   0  0  0  0  0  0  0  0  0  0  0  0
   -9.8789  -14.8190   27.2470 C   0  0  0  0  0  0  0  0  0  0  0  0
   -8.5832  -15.6406   27.1316 C   0  0  0  0  0  0  0  0  0  0  0  0
    1.2506   -6.8387   23.6622 H   0  0  0  0  0  0  0  0  0  0  0  0
    0.0453   -5.5356   23.5685 H   0  0  0  0  0  0  0  0  0  0  0  0
   -0.2472   -6.9480   24.6025 H   0  0  0  0  0  0  0  0  0  0  0  0
   -0.0166   -7.8889   19.3458 H   0  0  0  0  0  0  0  0  0  0  0  0
   -3.8307   -7.7046   22.9447 H   0  0  0  0  0  0  0  0  0  0  0  0
   -2.7213   -7.6427   24.3439 H   0  0  0  0  0  0  0  0  0  0  0  0
   -3.0558  -11.5561   25.8592 H   0  0  0  0  0  0  0  0  0  0  0  0
   -3.6030  -13.7414   26.8375 H   0  0  0  0  0  0  0  0  0  0  0  0
   -5.7485  -15.5224   27.2300 H   0  0  0  0  0  0  0  0  0  0  0  0
   -7.0086  -11.2234   24.2261 H   0  0  0  0  0  0  0  0  0  0  0  0
   -9.4114  -12.2931   25.6975 H   0  0  0  0  0  0  0  0  0  0  0  0
   -9.3695  -13.2230   24.1956 H   0  0  0  0  0  0  0  0  0  0  0  0
  -11.2584  -13.7458   25.9469 H   0  0  0  0  0  0  0  0  0  0  0  0
  -10.4343  -15.0972   25.1753 H   0  0  0  0  0  0  0  0  0  0  0  0
  -10.6692  -15.4410   27.6730 H   0  0  0  0  0  0  0  0  0  0  0  0
   -9.7324  -13.9834   27.9444 H   0  0  0  0  0  0  0  0  0  0  0  0
   -8.7653  -16.5499   26.5516 H   0  0  0  0  0  0  0  0  0  0  0  0
   -8.2395  -15.9355   28.1288 H   0  0  0  0  0  0  0  0  0  0  0  0
  1  2  1  0
  2  3  1  0
  3  4  2  0
  4  5  1  0
  5  6  1  0
  6  7  1  0
  7  8  1  0
  8  9  1  0
  9 10  2  0
  9 11  1  0
 11 12  2  0
 12 13  1  0
 13 14  2  0
 14 15  1  0
 15 16  1  0
 16 17  2  0
 17 18  1  0
 18 19  2  0
 17 20  1  0
 20 21  1  0
 21 22  1  0
 22 23  1  0
  6  2  2  0
 19 11  1  0
 18 14  1  0
 23 16  1  0
  1 24  1  0
  1 25  1  0
  1 26  1  0
  4 27  1  0
  7 28  1  0
  7 29  1  0
 12 30  1  0
 13 31  1  0
 15 32  1  0
 19 33  1  0
 20 34  1  0
 20 35  1  0
 21 36  1  0
 21 37  1  0
 22 38  1  0
 22 39  1  0
 23 40  1  0
 23 41  1  0
M  END
>  <Energy>  (226) 
54.716527672400886

>  <compound_id>  (226) 
64908

>  <target_id>  (226) 
1

>  <reference_id>  (226) 
39

>  <inspiration_ids>  (226) 
[71, 39]

>  <energy_score>  (226) 
-69.82011439755746

>  <distance_score>  (226) 
15.392713144171664

>  <path>  (226) 
/opt/xchem-fragalysis-2/maxwin/BulkDock/SCRATCH/511022/C64908-P39/C64908-P39.minimised.mol

>  <scratch_subdir>  (226) 
/opt/xchem-fragalysis-2/maxwin/BulkDock/SCRATCH/511022/C64908-P39

>  <fragmenstein_runtime>  (226) 
25.4745352268219

>  <fragmenstein_outcome>  (226) 
too moved

>  <fragmenstein_mode>  (226) 
expansion

>  <fragmenstein_error>  (226) 


$$$$
C64914-P71
     RDKit          3D

 45 48  0  0  0  0  0  0  0  0999 V2000
    6.2109   -6.8562   23.3595 C   0  0  0  0  0  0  0  0  0  0  0  0
    5.2870   -7.8101   22.0829 C   0  0  0  0  0  0  0  0  0  0  0  0
    6.3915   -7.9700   20.4529 C   0  0  0  0  0  0  0  0  0  0  0  0
    6.3655  -10.6091   20.1269 S   0  0  0  0  0  0  0  0  0  0  0  0
    4.8928  -11.0529   22.0550 C   0  0  0  0  0  0  0  0  0  0  0  0
    3.2329  -11.8171   22.7779 N   0  0  0  0  0  0  0  0  0  0  0  0
    2.8180  -13.5125   23.5107 C   0  0  0  0  0  0  0  0  0  0  0  0
    3.5153  -14.5252   23.6041 O   0  0  0  0  0  0  0  0  0  0  0  0
    0.8704  -13.9506   24.1570 C   0  0  0  0  0  0  0  0  0  0  0  0
   -0.8690  -14.6762   24.4797 O   0  0  0  0  0  0  0  0  0  0  0  0
   -2.2599  -14.7648   25.3182 C   0  0  0  0  0  0  0  0  0  0  0  0
   -2.7542  -13.7364   25.7927 O   0  0  0  0  0  0  0  0  0  0  0  0
   -3.2776  -16.0476   25.5674 C   0  0  0  0  0  0  0  0  0  0  0  0
   -4.6653  -15.8433   25.7828 C   0  0  0  0  0  0  0  0  0  0  0  0
   -5.5765  -16.8466   26.3168 C   0  0  0  0  0  0  0  0  0  0  0  0
   -5.0692  -18.1375   26.5624 C   0  0  0  0  0  0  0  0  0  0  0  0
   -5.5099  -19.2970   27.1738 N   0  0  0  0  0  0  0  0  0  0  0  0
   -4.5596  -20.3077   27.0300 C   0  0  0  0  0  0  0  0  0  0  0  0
   -3.4655  -19.7679   26.4227 C   0  0  0  0  0  0  0  0  0  0  0  0
   -3.7603  -18.4116   26.2589 C   0  0  0  0  0  0  0  0  0  0  0  0
   -2.9272  -17.3447   25.9606 C   0  0  0  0  0  0  0  0  0  0  0  0
   -2.2282  -20.5132   26.0286 C   0  0  0  0  0  0  0  0  0  0  0  0
   -2.2108  -21.9470   26.5658 C   0  0  0  0  0  0  0  0  0  0  0  0
   -3.6120  -22.5689   26.5811 C   0  0  0  0  0  0  0  0  0  0  0  0
   -4.5593  -21.7327   27.4592 C   0  0  0  0  0  0  0  0  0  0  0  0
    4.8013   -9.6890   22.8568 N   0  0  0  0  0  0  0  0  0  0  0  0
    6.9756   -6.2350   22.8962 H   0  0  0  0  0  0  0  0  0  0  0  0
    5.4648   -6.3851   23.9506 H   0  0  0  0  0  0  0  0  0  0  0  0
    6.7441   -7.4601   24.1113 H   0  0  0  0  0  0  0  0  0  0  0  0
    7.2461   -7.3248   20.1382 H   0  0  0  0  0  0  0  0  0  0  0  0
    2.4621  -11.1713   22.9457 H   0  0  0  0  0  0  0  0  0  0  0  0
    0.9667  -13.7021   25.2616 H   0  0  0  0  0  0  0  0  0  0  0  0
    0.2176  -13.9746   23.2710 H   0  0  0  0  0  0  0  0  0  0  0  0
   -5.0671  -14.8400   25.6297 H   0  0  0  0  0  0  0  0  0  0  0  0
   -6.6020  -16.5823   26.5526 H   0  0  0  0  0  0  0  0  0  0  0  0
   -6.3997  -19.3695   27.6425 H   0  0  0  0  0  0  0  0  0  0  0  0
   -1.9591  -17.7002   26.2715 H   0  0  0  0  0  0  0  0  0  0  0  0
   -2.1862  -20.5443   24.9324 H   0  0  0  0  0  0  0  0  0  0  0  0
   -1.3297  -19.9877   26.3707 H   0  0  0  0  0  0  0  0  0  0  0  0
   -1.5283  -22.5600   25.9666 H   0  0  0  0  0  0  0  0  0  0  0  0
   -1.8136  -21.9434   27.5893 H   0  0  0  0  0  0  0  0  0  0  0  0
   -3.5447  -23.5860   26.9799 H   0  0  0  0  0  0  0  0  0  0  0  0
   -4.0022  -22.6386   25.5582 H   0  0  0  0  0  0  0  0  0  0  0  0
   -5.5467  -22.1942   27.4650 H   0  0  0  0  0  0  0  0  0  0  0  0
   -4.1314  -21.7423   28.4641 H   0  0  0  0  0  0  0  0  0  0  0  0
  1  2  1  0
  2  3  2  0
  3  4  1  0
  4  5  1  0
  5  6  1  0
  6  7  1  0
  7  8  2  0
  7  9  1  0
  9 10  1  0
 10 11  1  0
 11 12  2  0
 11 13  1  0
 13 14  2  0
 14 15  1  0
 15 16  2  0
 16 17  1  0
 17 18  1  0
 18 19  2  0
 19 20  1  0
 20 21  2  0
 19 22  1  0
 22 23  1  0
 23 24  1  0
 24 25  1  0
  5 26  2  0
 26  2  1  0
 21 13  1  0
 20 16  1  0
 25 18  1  0
  1 27  1  0
  1 28  1  0
  1 29  1  0
  3 30  1  0
  6 31  1  0
  9 32  1  0
  9 33  1  0
 14 34  1  0
 15 35  1  0
 17 36  1  0
 21 37  1  0
 22 38  1  0
 22 39  1  0
 23 40  1  0
 23 41  1  0
 24 42  1  0
 24 43  1  0
 25 44  1  0
 25 45  1  0
M  END
>  <Energy>  (227) 
1315.0011010555402

>  <compound_id>  (227) 
64914

>  <target_id>  (227) 
1

>  <reference_id>  (227) 
71

>  <inspiration_ids>  (227) 
[71, 39]

>  <energy_score>  (227) 
1218.2460751808758

>  <distance_score>  (227) 
11.999604309482494

>  <path>  (227) 
/opt/xchem-fragalysis-2/maxwin/BulkDock/SCRATCH/511022/C64914-P71/C64914-P71.minimised.mol

>  <scratch_subdir>  (227) 
/opt/xchem-fragalysis-2/maxwin/BulkDock/SCRATCH/511022/C64914-P71

>  <fragmenstein_runtime>  (227) 
32.78529644012451

>  <fragmenstein_outcome>  (227) 
too moved

>  <fragmenstein_mode>  (227) 
expansion

>  <fragmenstein_error>  (227) 


$$$$
C64914-P39
     RDKit          3D

 45 48  0  0  0  0  0  0  0  0999 V2000
    2.0472   -4.2129   20.0213 C   0  0  0  0  0  0  0  0  0  0  0  0
    1.3440   -5.4547   19.5689 C   0  0  0  0  0  0  0  0  0  0  0  0
    1.3499   -5.9135   18.2681 C   0  0  0  0  0  0  0  0  0  0  0  0
    0.4598   -7.3651   18.1606 S   0  0  0  0  0  0  0  0  0  0  0  0
    0.1846   -7.3653   19.8757 C   0  0  0  0  0  0  0  0  0  0  0  0
   -0.2554   -8.6021   20.3169 N   0  0  0  0  0  0  0  0  0  0  0  0
   -0.5533   -9.0873   21.6478 C   0  0  0  0  0  0  0  0  0  0  0  0
   -0.5715   -8.5155   22.6959 O   0  0  0  0  0  0  0  0  0  0  0  0
   -0.9156  -10.8802   21.6511 C   0  0  0  0  0  0  0  0  0  0  0  0
   -0.2307  -12.3607   22.6224 O   0  0  0  0  0  0  0  0  0  0  0  0
   -0.2410  -13.9860   23.2283 C   0  0  0  0  0  0  0  0  0  0  0  0
    0.8193  -14.2242   23.7776 O   0  0  0  0  0  0  0  0  0  0  0  0
   -1.7316  -15.1943   23.1911 C   0  0  0  0  0  0  0  0  0  0  0  0
   -2.5589  -15.6544   22.1046 C   0  0  0  0  0  0  0  0  0  0  0  0
   -3.8207  -16.3681   22.3160 C   0  0  0  0  0  0  0  0  0  0  0  0
   -4.3270  -16.5928   23.6274 C   0  0  0  0  0  0  0  0  0  0  0  0
   -5.4962  -17.1513   24.1391 N   0  0  0  0  0  0  0  0  0  0  0  0
   -5.5491  -16.9340   25.5032 C   0  0  0  0  0  0  0  0  0  0  0  0
   -4.3547  -16.3914   25.9026 C   0  0  0  0  0  0  0  0  0  0  0  0
   -3.6193  -16.1408   24.7284 C   0  0  0  0  0  0  0  0  0  0  0  0
   -2.4194  -15.4458   24.4901 C   0  0  0  0  0  0  0  0  0  0  0  0
   -4.0276  -16.0207   27.3144 C   0  0  0  0  0  0  0  0  0  0  0  0
   -5.0549  -16.5920   28.3008 C   0  0  0  0  0  0  0  0  0  0  0  0
   -6.4835  -16.4334   27.7665 C   0  0  0  0  0  0  0  0  0  0  0  0
   -6.6739  -17.1853   26.4364 C   0  0  0  0  0  0  0  0  0  0  0  0
    0.6316   -6.2795   20.4773 N   0  0  0  0  0  0  0  0  0  0  0  0
    1.9205   -4.0619   21.0959 H   0  0  0  0  0  0  0  0  0  0  0  0
    1.6191   -3.3419   19.5139 H   0  0  0  0  0  0  0  0  0  0  0  0
    3.1121   -4.2537   19.7807 H   0  0  0  0  0  0  0  0  0  0  0  0
    1.8139   -5.4680   17.4005 H   0  0  0  0  0  0  0  0  0  0  0  0
   -0.4164   -9.3429   19.6528 H   0  0  0  0  0  0  0  0  0  0  0  0
   -2.0127  -10.9423   21.6559 H   0  0  0  0  0  0  0  0  0  0  0  0
   -0.9187  -11.2180   20.6140 H   0  0  0  0  0  0  0  0  0  0  0  0
   -2.2586  -15.4858   21.0741 H   0  0  0  0  0  0  0  0  0  0  0  0
   -4.3863  -16.7046   21.4487 H   0  0  0  0  0  0  0  0  0  0  0  0
   -6.2333  -17.5527   23.5757 H   0  0  0  0  0  0  0  0  0  0  0  0
   -2.0956  -14.8460   25.3392 H   0  0  0  0  0  0  0  0  0  0  0  0
   -3.0270  -16.3771   27.5822 H   0  0  0  0  0  0  0  0  0  0  0  0
   -4.0184  -14.9265   27.3958 H   0  0  0  0  0  0  0  0  0  0  0  0
   -4.8511  -17.6574   28.4689 H   0  0  0  0  0  0  0  0  0  0  0  0
   -4.9545  -16.0900   29.2695 H   0  0  0  0  0  0  0  0  0  0  0  0
   -6.6980  -15.3666   27.6221 H   0  0  0  0  0  0  0  0  0  0  0  0
   -7.2035  -16.8086   28.5028 H   0  0  0  0  0  0  0  0  0  0  0  0
   -6.6937  -18.2547   26.6612 H   0  0  0  0  0  0  0  0  0  0  0  0
   -7.6161  -16.8532   25.9927 H   0  0  0  0  0  0  0  0  0  0  0  0
  1  2  1  0
  2  3  2  0
  3  4  1  0
  4  5  1  0
  5  6  1  0
  6  7  1  0
  7  8  2  0
  7  9  1  0
  9 10  1  0
 10 11  1  0
 11 12  2  0
 11 13  1  0
 13 14  2  0
 14 15  1  0
 15 16  2  0
 16 17  1  0
 17 18  1  0
 18 19  2  0
 19 20  1  0
 20 21  2  0
 19 22  1  0
 22 23  1  0
 23 24  1  0
 24 25  1  0
  5 26  2  0
 26  2  1  0
 21 13  1  0
 20 16  1  0
 25 18  1  0
  1 27  1  0
  1 28  1  0
  1 29  1  0
  3 30  1  0
  6 31  1  0
  9 32  1  0
  9 33  1  0
 14 34  1  0
 15 35  1  0
 17 36  1  0
 21 37  1  0
 22 38  1  0
 22 39  1  0
 23 40  1  0
 23 41  1  0
 24 42  1  0
 24 43  1  0
 25 44  1  0
 25 45  1  0
M  END
>  <Energy>  (228) 
268.75102951805911

>  <compound_id>  (228) 
64914

>  <target_id>  (228) 
1

>  <reference_id>  (228) 
39

>  <inspiration_ids>  (228) 
[71, 39]

>  <energy_score>  (228) 
171.99600364338215

>  <distance_score>  (228) 
13.997993714485487

>  <path>  (228) 
/opt/xchem-fragalysis-2/maxwin/BulkDock/SCRATCH/511022/C64914-P39/C64914-P39.minimised.mol

>  <scratch_subdir>  (228) 
/opt/xchem-fragalysis-2/maxwin/BulkDock/SCRATCH/511022/C64914-P39

>  <fragmenstein_runtime>  (228) 
49.84267067909241

>  <fragmenstein_outcome>  (228) 
too moved

>  <fragmenstein_mode>  (228) 
expansion

>  <fragmenstein_error>  (228) 


$$$$
C54491-P71
     RDKit          3D

 44 47  0  0  0  0  0  0  0  0999 V2000
    1.3918  -14.8067   29.6319 C   0  0  0  0  0  0  0  0  0  0  0  0
   -0.0131  -14.3916   29.3118 C   0  0  0  0  0  0  0  0  0  0  0  0
   -0.0456  -13.2121   28.5457 N   0  0  0  0  0  0  0  0  0  0  0  0
   -1.2671  -12.9723   28.1538 C   0  0  0  0  0  0  0  0  0  0  0  0
   -2.4581  -14.0739   28.7056 S   0  0  0  0  0  0  0  0  0  0  0  0
   -1.2763  -15.0107   29.5892 C   0  0  0  0  0  0  0  0  0  0  0  0
   -1.7580  -16.4152   30.3342 C   0  0  0  0  0  0  0  0  0  0  0  0
   -3.1071  -16.4936   31.2666 C   0  0  0  0  0  0  0  0  0  0  0  0
   -3.7154  -17.8912   31.6856 O   0  0  0  0  0  0  0  0  0  0  0  0
   -4.4320  -17.9794   32.9095 C   0  0  0  0  0  0  0  0  0  0  0  0
   -4.3704  -17.0200   33.6858 O   0  0  0  0  0  0  0  0  0  0  0  0
   -5.3484  -19.2166   33.4209 C   0  0  0  0  0  0  0  0  0  0  0  0
   -5.7426  -19.2332   34.7580 C   0  0  0  0  0  0  0  0  0  0  0  0
   -6.5955  -20.2327   35.3184 C   0  0  0  0  0  0  0  0  0  0  0  0
   -7.3058  -21.1436   34.4902 C   0  0  0  0  0  0  0  0  0  0  0  0
   -7.9031  -22.3991   34.6269 N   0  0  0  0  0  0  0  0  0  0  0  0
   -8.9048  -22.6490   33.5505 C   0  0  0  0  0  0  0  0  0  0  0  0
   -7.8405  -22.9586   32.7980 C   0  0  0  0  0  0  0  0  0  0  0  0
   -7.2566  -21.2451   33.1380 C   0  0  0  0  0  0  0  0  0  0  0  0
   -5.9269  -20.3062   32.7177 C   0  0  0  0  0  0  0  0  0  0  0  0
   -8.4567  -24.5243   32.6305 C   0  0  0  0  0  0  0  0  0  0  0  0
   -9.6589  -24.7722   31.7102 C   0  0  0  0  0  0  0  0  0  0  0  0
  -10.7629  -23.7981   32.0466 C   0  0  0  0  0  0  0  0  0  0  0  0
  -10.4480  -23.1820   33.3953 C   0  0  0  0  0  0  0  0  0  0  0  0
    1.7704  -14.2207   30.4746 H   0  0  0  0  0  0  0  0  0  0  0  0
    2.0504  -14.6517   28.7721 H   0  0  0  0  0  0  0  0  0  0  0  0
    1.4259  -15.8665   29.9017 H   0  0  0  0  0  0  0  0  0  0  0  0
   -1.5227  -12.1352   27.5214 H   0  0  0  0  0  0  0  0  0  0  0  0
   -1.8700  -17.1538   29.5301 H   0  0  0  0  0  0  0  0  0  0  0  0
   -0.9113  -16.7450   30.9487 H   0  0  0  0  0  0  0  0  0  0  0  0
   -2.9088  -15.9334   32.1852 H   0  0  0  0  0  0  0  0  0  0  0  0
   -3.9276  -16.0118   30.7261 H   0  0  0  0  0  0  0  0  0  0  0  0
   -5.3265  -18.4913   35.4395 H   0  0  0  0  0  0  0  0  0  0  0  0
   -6.6776  -20.3050   36.3994 H   0  0  0  0  0  0  0  0  0  0  0  0
   -7.8200  -22.9198   35.4883 H   0  0  0  0  0  0  0  0  0  0  0  0
   -5.6071  -20.2848   31.6856 H   0  0  0  0  0  0  0  0  0  0  0  0
   -8.7490  -24.9511   33.6089 H   0  0  0  0  0  0  0  0  0  0  0  0
   -7.6526  -25.1823   32.3336 H   0  0  0  0  0  0  0  0  0  0  0  0
  -10.0197  -25.7932   31.8885 H   0  0  0  0  0  0  0  0  0  0  0  0
   -9.4048  -24.7564   30.6483 H   0  0  0  0  0  0  0  0  0  0  0  0
  -10.9060  -23.0210   31.2946 H   0  0  0  0  0  0  0  0  0  0  0  0
  -11.7210  -24.3256   32.0913 H   0  0  0  0  0  0  0  0  0  0  0  0
  -10.6985  -24.0003   34.0845 H   0  0  0  0  0  0  0  0  0  0  0  0
  -11.1572  -22.3623   33.5528 H   0  0  0  0  0  0  0  0  0  0  0  0
  1  2  1  0
  2  3  1  0
  3  4  2  0
  4  5  1  0
  5  6  1  0
  6  7  1  0
  7  8  1  0
  8  9  1  0
  9 10  1  0
 10 11  2  0
 10 12  1  0
 12 13  2  0
 13 14  1  0
 14 15  2  0
 15 16  1  0
 16 17  1  0
 17 18  2  0
 18 19  1  0
 19 20  2  0
 18 21  1  0
 21 22  1  0
 22 23  1  0
 23 24  1  0
  6  2  2  0
 20 12  1  0
 19 15  1  0
 24 17  1  0
  1 25  1  0
  1 26  1  0
  1 27  1  0
  4 28  1  0
  7 29  1  0
  7 30  1  0
  8 31  1  0
  8 32  1  0
 13 33  1  0
 14 34  1  0
 16 35  1  0
 20 36  1  0
 21 37  1  0
 21 38  1  0
 22 39  1  0
 22 40  1  0
 23 41  1  0
 23 42  1  0
 24 43  1  0
 24 44  1  0
M  END
>  <Energy>  (229) 
354.17727020213033

>  <compound_id>  (229) 
54491

>  <target_id>  (229) 
1

>  <reference_id>  (229) 
71

>  <inspiration_ids>  (229) 
[71, 39]

>  <energy_score>  (229) 
246.27984052017678

>  <distance_score>  (229) 
15.630649617000618

>  <path>  (229) 
/opt/xchem-fragalysis-2/maxwin/BulkDock/SCRATCH/511022/C54491-P71/C54491-P71.minimised.mol

>  <scratch_subdir>  (229) 
/opt/xchem-fragalysis-2/maxwin/BulkDock/SCRATCH/511022/C54491-P71

>  <fragmenstein_runtime>  (229) 
32.74258589744568

>  <fragmenstein_outcome>  (229) 
too moved

>  <fragmenstein_mode>  (229) 
expansion

>  <fragmenstein_error>  (229) 


$$$$
C54491-P39
     RDKit          3D

 44 47  0  0  0  0  0  0  0  0999 V2000
    3.3130  -13.8657   21.5587 C   0  0  0  0  0  0  0  0  0  0  0  0
    2.8853  -13.9316   23.4778 C   0  0  0  0  0  0  0  0  0  0  0  0
    3.6250  -13.0000   23.8955 N   0  0  0  0  0  0  0  0  0  0  0  0
    3.3467  -12.1595   22.9688 C   0  0  0  0  0  0  0  0  0  0  0  0
    1.8639  -11.9953   23.4705 S   0  0  0  0  0  0  0  0  0  0  0  0
    1.8279  -13.1796   24.6286 C   0  0  0  0  0  0  0  0  0  0  0  0
    0.6112  -13.2848   26.2329 C   0  0  0  0  0  0  0  0  0  0  0  0
   -1.3935  -13.5056   26.6936 C   0  0  0  0  0  0  0  0  0  0  0  0
   -3.0376  -14.5094   26.6959 O   0  0  0  0  0  0  0  0  0  0  0  0
   -4.3109  -15.2032   27.7218 C   0  0  0  0  0  0  0  0  0  0  0  0
   -3.8978  -15.3100   28.8898 O   0  0  0  0  0  0  0  0  0  0  0  0
   -6.1775  -15.8083   27.6182 C   0  0  0  0  0  0  0  0  0  0  0  0
   -7.2211  -15.0686   27.0111 C   0  0  0  0  0  0  0  0  0  0  0  0
   -8.8437  -15.2820   27.1362 C   0  0  0  0  0  0  0  0  0  0  0  0
   -9.6568  -16.3261   27.8438 C   0  0  0  0  0  0  0  0  0  0  0  0
  -10.9983  -16.5182   28.4157 N   0  0  0  0  0  0  0  0  0  0  0  0
  -11.8608  -17.9470   28.8634 C   0  0  0  0  0  0  0  0  0  0  0  0
  -10.4771  -18.0142   29.2972 C   0  0  0  0  0  0  0  0  0  0  0  0
   -8.9392  -17.2221   28.5434 C   0  0  0  0  0  0  0  0  0  0  0  0
   -7.1977  -16.9198   28.4471 C   0  0  0  0  0  0  0  0  0  0  0  0
  -10.5052  -20.0898   30.0410 C   0  0  0  0  0  0  0  0  0  0  0  0
  -11.4673  -21.1288   30.7369 C   0  0  0  0  0  0  0  0  0  0  0  0
  -12.5078  -21.2806   29.7597 C   0  0  0  0  0  0  0  0  0  0  0  0
  -12.2700  -19.9993   28.8300 C   0  0  0  0  0  0  0  0  0  0  0  0
    2.6504  -14.5071   20.9343 H   0  0  0  0  0  0  0  0  0  0  0  0
    3.1464  -12.9130   21.1713 H   0  0  0  0  0  0  0  0  0  0  0  0
    4.2775  -13.4539   21.0958 H   0  0  0  0  0  0  0  0  0  0  0  0
    4.0198  -11.5728   22.3510 H   0  0  0  0  0  0  0  0  0  0  0  0
    1.1803  -13.8940   26.9549 H   0  0  0  0  0  0  0  0  0  0  0  0
    0.7471  -12.2651   26.6363 H   0  0  0  0  0  0  0  0  0  0  0  0
   -1.3416  -13.4383   27.7879 H   0  0  0  0  0  0  0  0  0  0  0  0
   -1.8500  -12.5848   26.3272 H   0  0  0  0  0  0  0  0  0  0  0  0
   -6.9464  -14.1711   26.4483 H   0  0  0  0  0  0  0  0  0  0  0  0
   -9.4148  -14.4737   26.6638 H   0  0  0  0  0  0  0  0  0  0  0  0
  -11.5755  -15.7004   28.5253 H   0  0  0  0  0  0  0  0  0  0  0  0
   -6.6674  -17.5645   29.1620 H   0  0  0  0  0  0  0  0  0  0  0  0
  -10.0610  -20.7376   29.3094 H   0  0  0  0  0  0  0  0  0  0  0  0
  -10.1768  -20.1252   31.1300 H   0  0  0  0  0  0  0  0  0  0  0  0
  -11.8260  -20.8719   31.7440 H   0  0  0  0  0  0  0  0  0  0  0  0
  -10.9765  -22.0906   30.9086 H   0  0  0  0  0  0  0  0  0  0  0  0
  -13.4420  -21.5638   30.2577 H   0  0  0  0  0  0  0  0  0  0  0  0
  -12.3164  -22.1906   29.1597 H   0  0  0  0  0  0  0  0  0  0  0  0
  -11.4038  -20.6239   28.5020 H   0  0  0  0  0  0  0  0  0  0  0  0
  -12.2487  -20.5227   27.8563 H   0  0  0  0  0  0  0  0  0  0  0  0
  1  2  1  0
  2  3  1  0
  3  4  2  0
  4  5  1  0
  5  6  1  0
  6  7  1  0
  7  8  1  0
  8  9  1  0
  9 10  1  0
 10 11  2  0
 10 12  1  0
 12 13  2  0
 13 14  1  0
 14 15  2  0
 15 16  1  0
 16 17  1  0
 17 18  2  0
 18 19  1  0
 19 20  2  0
 18 21  1  0
 21 22  1  0
 22 23  1  0
 23 24  1  0
  6  2  2  0
 20 12  1  0
 19 15  1  0
 24 17  1  0
  1 25  1  0
  1 26  1  0
  1 27  1  0
  4 28  1  0
  7 29  1  0
  7 30  1  0
  8 31  1  0
  8 32  1  0
 13 33  1  0
 14 34  1  0
 16 35  1  0
 20 36  1  0
 21 37  1  0
 21 38  1  0
 22 39  1  0
 22 40  1  0
 23 41  1  0
 23 42  1  0
 24 43  1  0
 24 44  1  0
M  END
>  <Energy>  (230) 
1525.7287559949661

>  <compound_id>  (230) 
54491

>  <target_id>  (230) 
1

>  <reference_id>  (230) 
39

>  <inspiration_ids>  (230) 
[71, 39]

>  <energy_score>  (230) 
1417.8313263130042

>  <distance_score>  (230) 
13.241367485624652

>  <path>  (230) 
/opt/xchem-fragalysis-2/maxwin/BulkDock/SCRATCH/511022/C54491-P39/C54491-P39.minimised.mol

>  <scratch_subdir>  (230) 
/opt/xchem-fragalysis-2/maxwin/BulkDock/SCRATCH/511022/C54491-P39

>  <fragmenstein_runtime>  (230) 
19.326443195343018

>  <fragmenstein_outcome>  (230) 
too moved

>  <fragmenstein_mode>  (230) 
expansion

>  <fragmenstein_error>  (230) 


$$$$
C64914-P71
     RDKit          3D

 45 48  0  0  0  0  0  0  0  0999 V2000
    6.2109   -6.8562   23.3595 C   0  0  0  0  0  0  0  0  0  0  0  0
    5.2870   -7.8101   22.0829 C   0  0  0  0  0  0  0  0  0  0  0  0
    6.3915   -7.9700   20.4529 C   0  0  0  0  0  0  0  0  0  0  0  0
    6.3655  -10.6091   20.1269 S   0  0  0  0  0  0  0  0  0  0  0  0
    4.8928  -11.0529   22.0550 C   0  0  0  0  0  0  0  0  0  0  0  0
    3.2329  -11.8171   22.7779 N   0  0  0  0  0  0  0  0  0  0  0  0
    2.8180  -13.5125   23.5107 C   0  0  0  0  0  0  0  0  0  0  0  0
    3.5153  -14.5252   23.6041 O   0  0  0  0  0  0  0  0  0  0  0  0
    0.8704  -13.9506   24.1570 C   0  0  0  0  0  0  0  0  0  0  0  0
   -0.8690  -14.6762   24.4797 O   0  0  0  0  0  0  0  0  0  0  0  0
   -2.2599  -14.7648   25.3182 C   0  0  0  0  0  0  0  0  0  0  0  0
   -2.7542  -13.7364   25.7927 O   0  0  0  0  0  0  0  0  0  0  0  0
   -3.2776  -16.0476   25.5674 C   0  0  0  0  0  0  0  0  0  0  0  0
   -4.6653  -15.8433   25.7828 C   0  0  0  0  0  0  0  0  0  0  0  0
   -5.5765  -16.8466   26.3168 C   0  0  0  0  0  0  0  0  0  0  0  0
   -5.0692  -18.1375   26.5624 C   0  0  0  0  0  0  0  0  0  0  0  0
   -5.5099  -19.2970   27.1738 N   0  0  0  0  0  0  0  0  0  0  0  0
   -4.5596  -20.3077   27.0300 C   0  0  0  0  0  0  0  0  0  0  0  0
   -3.4655  -19.7679   26.4227 C   0  0  0  0  0  0  0  0  0  0  0  0
   -3.7603  -18.4116   26.2589 C   0  0  0  0  0  0  0  0  0  0  0  0
   -2.9272  -17.3447   25.9606 C   0  0  0  0  0  0  0  0  0  0  0  0
   -2.2282  -20.5132   26.0286 C   0  0  0  0  0  0  0  0  0  0  0  0
   -2.2108  -21.9470   26.5658 C   0  0  0  0  0  0  0  0  0  0  0  0
   -3.6120  -22.5689   26.5811 C   0  0  0  0  0  0  0  0  0  0  0  0
   -4.5593  -21.7327   27.4592 C   0  0  0  0  0  0  0  0  0  0  0  0
    4.8013   -9.6890   22.8568 N   0  0  0  0  0  0  0  0  0  0  0  0
    6.9756   -6.2350   22.8962 H   0  0  0  0  0  0  0  0  0  0  0  0
    5.4648   -6.3851   23.9506 H   0  0  0  0  0  0  0  0  0  0  0  0
    6.7441   -7.4601   24.1113 H   0  0  0  0  0  0  0  0  0  0  0  0
    7.2461   -7.3248   20.1382 H   0  0  0  0  0  0  0  0  0  0  0  0
    2.4621  -11.1713   22.9457 H   0  0  0  0  0  0  0  0  0  0  0  0
    0.9667  -13.7021   25.2616 H   0  0  0  0  0  0  0  0  0  0  0  0
    0.2176  -13.9746   23.2710 H   0  0  0  0  0  0  0  0  0  0  0  0
   -5.0671  -14.8400   25.6297 H   0  0  0  0  0  0  0  0  0  0  0  0
   -6.6020  -16.5823   26.5526 H   0  0  0  0  0  0  0  0  0  0  0  0
   -6.3997  -19.3695   27.6425 H   0  0  0  0  0  0  0  0  0  0  0  0
   -1.9591  -17.7002   26.2715 H   0  0  0  0  0  0  0  0  0  0  0  0
   -2.1862  -20.5443   24.9324 H   0  0  0  0  0  0  0  0  0  0  0  0
   -1.3297  -19.9877   26.3707 H   0  0  0  0  0  0  0  0  0  0  0  0
   -1.5283  -22.5600   25.9666 H   0  0  0  0  0  0  0  0  0  0  0  0
   -1.8136  -21.9434   27.5893 H   0  0  0  0  0  0  0  0  0  0  0  0
   -3.5447  -23.5860   26.9799 H   0  0  0  0  0  0  0  0  0  0  0  0
   -4.0022  -22.6386   25.5582 H   0  0  0  0  0  0  0  0  0  0  0  0
   -5.5467  -22.1942   27.4650 H   0  0  0  0  0  0  0  0  0  0  0  0
   -4.1314  -21.7423   28.4641 H   0  0  0  0  0  0  0  0  0  0  0  0
  1  2  1  0
  2  3  2  0
  3  4  1  0
  4  5  1  0
  5  6  1  0
  6  7  1  0
  7  8  2  0
  7  9  1  0
  9 10  1  0
 10 11  1  0
 11 12  2  0
 11 13  1  0
 13 14  2  0
 14 15  1  0
 15 16  2  0
 16 17  1  0
 17 18  1  0
 18 19  2  0
 19 20  1  0
 20 21  2  0
 19 22  1  0
 22 23  1  0
 23 24  1  0
 24 25  1  0
  5 26  2  0
 26  2  1  0
 21 13  1  0
 20 16  1  0
 25 18  1  0
  1 27  1  0
  1 28  1  0
  1 29  1  0
  3 30  1  0
  6 31  1  0
  9 32  1  0
  9 33  1  0
 14 34  1  0
 15 35  1  0
 17 36  1  0
 21 37  1  0
 22 38  1  0
 22 39  1  0
 23 40  1  0
 23 41  1  0
 24 42  1  0
 24 43  1  0
 25 44  1  0
 25 45  1  0
M  END
>  <Energy>  (231) 
1315.0011010555402

>  <compound_id>  (231) 
64914

>  <target_id>  (231) 
1

>  <reference_id>  (231) 
71

>  <inspiration_ids>  (231) 
[71, 39]

>  <energy_score>  (231) 
1218.2460751808758

>  <distance_score>  (231) 
11.999604309482494

>  <path>  (231) 
/opt/xchem-fragalysis-2/maxwin/BulkDock/SCRATCH/511022/C64914-P71/C64914-P71.minimised.mol

>  <scratch_subdir>  (231) 
/opt/xchem-fragalysis-2/maxwin/BulkDock/SCRATCH/511022/C64914-P71

>  <fragmenstein_runtime>  (231) 
32.373085021972656

>  <fragmenstein_outcome>  (231) 
too moved

>  <fragmenstein_mode>  (231) 
expansion

>  <fragmenstein_error>  (231) 


$$$$
C64914-P39
     RDKit          3D

 45 48  0  0  0  0  0  0  0  0999 V2000
    2.0472   -4.2129   20.0213 C   0  0  0  0  0  0  0  0  0  0  0  0
    1.3440   -5.4547   19.5689 C   0  0  0  0  0  0  0  0  0  0  0  0
    1.3499   -5.9135   18.2681 C   0  0  0  0  0  0  0  0  0  0  0  0
    0.4598   -7.3651   18.1606 S   0  0  0  0  0  0  0  0  0  0  0  0
    0.1846   -7.3653   19.8757 C   0  0  0  0  0  0  0  0  0  0  0  0
   -0.2554   -8.6021   20.3169 N   0  0  0  0  0  0  0  0  0  0  0  0
   -0.5533   -9.0873   21.6478 C   0  0  0  0  0  0  0  0  0  0  0  0
   -0.5715   -8.5155   22.6959 O   0  0  0  0  0  0  0  0  0  0  0  0
   -0.9156  -10.8802   21.6511 C   0  0  0  0  0  0  0  0  0  0  0  0
   -0.2307  -12.3607   22.6224 O   0  0  0  0  0  0  0  0  0  0  0  0
   -0.2410  -13.9860   23.2283 C   0  0  0  0  0  0  0  0  0  0  0  0
    0.8193  -14.2242   23.7776 O   0  0  0  0  0  0  0  0  0  0  0  0
   -1.7316  -15.1943   23.1911 C   0  0  0  0  0  0  0  0  0  0  0  0
   -2.5589  -15.6544   22.1046 C   0  0  0  0  0  0  0  0  0  0  0  0
   -3.8207  -16.3681   22.3160 C   0  0  0  0  0  0  0  0  0  0  0  0
   -4.3270  -16.5928   23.6274 C   0  0  0  0  0  0  0  0  0  0  0  0
   -5.4962  -17.1513   24.1391 N   0  0  0  0  0  0  0  0  0  0  0  0
   -5.5491  -16.9340   25.5032 C   0  0  0  0  0  0  0  0  0  0  0  0
   -4.3547  -16.3914   25.9026 C   0  0  0  0  0  0  0  0  0  0  0  0
   -3.6193  -16.1408   24.7284 C   0  0  0  0  0  0  0  0  0  0  0  0
   -2.4194  -15.4458   24.4901 C   0  0  0  0  0  0  0  0  0  0  0  0
   -4.0276  -16.0207   27.3144 C   0  0  0  0  0  0  0  0  0  0  0  0
   -5.0549  -16.5920   28.3008 C   0  0  0  0  0  0  0  0  0  0  0  0
   -6.4835  -16.4334   27.7665 C   0  0  0  0  0  0  0  0  0  0  0  0
   -6.6739  -17.1853   26.4364 C   0  0  0  0  0  0  0  0  0  0  0  0
    0.6316   -6.2795   20.4773 N   0  0  0  0  0  0  0  0  0  0  0  0
    1.9205   -4.0619   21.0959 H   0  0  0  0  0  0  0  0  0  0  0  0
    1.6191   -3.3419   19.5139 H   0  0  0  0  0  0  0  0  0  0  0  0
    3.1121   -4.2537   19.7807 H   0  0  0  0  0  0  0  0  0  0  0  0
    1.8139   -5.4680   17.4005 H   0  0  0  0  0  0  0  0  0  0  0  0
   -0.4164   -9.3429   19.6528 H   0  0  0  0  0  0  0  0  0  0  0  0
   -2.0127  -10.9423   21.6559 H   0  0  0  0  0  0  0  0  0  0  0  0
   -0.9187  -11.2180   20.6140 H   0  0  0  0  0  0  0  0  0  0  0  0
   -2.2586  -15.4858   21.0741 H   0  0  0  0  0  0  0  0  0  0  0  0
   -4.3863  -16.7046   21.4487 H   0  0  0  0  0  0  0  0  0  0  0  0
   -6.2333  -17.5527   23.5757 H   0  0  0  0  0  0  0  0  0  0  0  0
   -2.0956  -14.8460   25.3392 H   0  0  0  0  0  0  0  0  0  0  0  0
   -3.0270  -16.3771   27.5822 H   0  0  0  0  0  0  0  0  0  0  0  0
   -4.0184  -14.9265   27.3958 H   0  0  0  0  0  0  0  0  0  0  0  0
   -4.8511  -17.6574   28.4689 H   0  0  0  0  0  0  0  0  0  0  0  0
   -4.9545  -16.0900   29.2695 H   0  0  0  0  0  0  0  0  0  0  0  0
   -6.6980  -15.3666   27.6221 H   0  0  0  0  0  0  0  0  0  0  0  0
   -7.2035  -16.8086   28.5028 H   0  0  0  0  0  0  0  0  0  0  0  0
   -6.6937  -18.2547   26.6612 H   0  0  0  0  0  0  0  0  0  0  0  0
   -7.6161  -16.8532   25.9927 H   0  0  0  0  0  0  0  0  0  0  0  0
  1  2  1  0
  2  3  2  0
  3  4  1  0
  4  5  1  0
  5  6  1  0
  6  7  1  0
  7  8  2  0
  7  9  1  0
  9 10  1  0
 10 11  1  0
 11 12  2  0
 11 13  1  0
 13 14  2  0
 14 15  1  0
 15 16  2  0
 16 17  1  0
 17 18  1  0
 18 19  2  0
 19 20  1  0
 20 21  2  0
 19 22  1  0
 22 23  1  0
 23 24  1  0
 24 25  1  0
  5 26  2  0
 26  2  1  0
 21 13  1  0
 20 16  1  0
 25 18  1  0
  1 27  1  0
  1 28  1  0
  1 29  1  0
  3 30  1  0
  6 31  1  0
  9 32  1  0
  9 33  1  0
 14 34  1  0
 15 35  1  0
 17 36  1  0
 21 37  1  0
 22 38  1  0
 22 39  1  0
 23 40  1  0
 23 41  1  0
 24 42  1  0
 24 43  1  0
 25 44  1  0
 25 45  1  0
M  END
>  <Energy>  (232) 
268.75102951805911

>  <compound_id>  (232) 
64914

>  <target_id>  (232) 
1

>  <reference_id>  (232) 
39

>  <inspiration_ids>  (232) 
[71, 39]

>  <energy_score>  (232) 
171.99600364338215

>  <distance_score>  (232) 
13.997993714485487

>  <path>  (232) 
/opt/xchem-fragalysis-2/maxwin/BulkDock/SCRATCH/511022/C64914-P39/C64914-P39.minimised.mol

>  <scratch_subdir>  (232) 
/opt/xchem-fragalysis-2/maxwin/BulkDock/SCRATCH/511022/C64914-P39

>  <fragmenstein_runtime>  (232) 
34.08049249649048

>  <fragmenstein_outcome>  (232) 
too moved

>  <fragmenstein_mode>  (232) 
expansion

>  <fragmenstein_error>  (232) 


$$$$
C64905-P71
     RDKit          3D

 53 57  0  0  0  0  0  0  0  0999 V2000
   -0.3812  -18.7460   20.9160 O   0  0  0  0  0  0  0  0  0  0  0  0
   -1.0652  -17.7683   20.7174 C   0  0  0  0  0  0  0  0  0  0  0  0
   -0.7299  -16.8496   19.2851 C   0  0  0  0  0  0  0  0  0  0  0  0
    0.7418  -16.3542   18.3778 C   0  0  0  0  0  0  0  0  0  0  0  0
    2.0057  -15.8649   18.6336 N   0  0  0  0  0  0  0  0  0  0  0  0
    2.6628  -15.0992   17.5073 C   0  0  0  0  0  0  0  0  0  0  0  0
    4.0360  -14.3493   17.3463 C   0  0  0  0  0  0  0  0  0  0  0  0
    4.6433  -13.4587   18.2534 C   0  0  0  0  0  0  0  0  0  0  0  0
    5.8364  -12.7199   18.0000 C   0  0  0  0  0  0  0  0  0  0  0  0
    6.4697  -12.8042   16.7764 C   0  0  0  0  0  0  0  0  0  0  0  0
    5.9119  -13.6519   15.8304 C   0  0  0  0  0  0  0  0  0  0  0  0
    4.7346  -14.4056   16.1147 C   0  0  0  0  0  0  0  0  0  0  0  0
    1.8054  -15.0704   16.4273 C   0  0  0  0  0  0  0  0  0  0  0  0
    0.3317  -15.9079   16.6967 S   0  0  0  0  0  0  0  0  0  0  0  0
   -2.2612  -17.1709   21.5602 N   0  0  0  0  0  0  0  0  0  0  0  0
   -2.8905  -17.6294   23.0465 N   0  0  0  0  0  0  0  0  0  0  0  0
   -4.3680  -17.6418   23.5677 C   0  0  0  0  0  0  0  0  0  0  0  0
   -5.3992  -17.4014   22.9854 O   0  0  0  0  0  0  0  0  0  0  0  0
   -4.7007  -17.9080   25.2826 C   0  0  0  0  0  0  0  0  0  0  0  0
   -5.3513  -16.7733   25.8225 C   0  0  0  0  0  0  0  0  0  0  0  0
   -6.3438  -16.7469   26.8930 C   0  0  0  0  0  0  0  0  0  0  0  0
   -6.8820  -17.9229   27.4729 C   0  0  0  0  0  0  0  0  0  0  0  0
   -8.0640  -18.0658   28.2738 N   0  0  0  0  0  0  0  0  0  0  0  0
   -8.5723  -19.4227   28.3889 C   0  0  0  0  0  0  0  0  0  0  0  0
   -7.3512  -20.2280   27.7069 C   0  0  0  0  0  0  0  0  0  0  0  0
   -6.2954  -19.1475   27.1215 C   0  0  0  0  0  0  0  0  0  0  0  0
   -5.1238  -19.0845   26.0521 C   0  0  0  0  0  0  0  0  0  0  0  0
   -7.5767  -22.0892   27.6478 C   0  0  0  0  0  0  0  0  0  0  0  0
   -9.1302  -22.9015   28.1056 C   0  0  0  0  0  0  0  0  0  0  0  0
  -10.4064  -21.9868   28.3946 C   0  0  0  0  0  0  0  0  0  0  0  0
  -10.1599  -20.5844   29.1201 C   0  0  0  0  0  0  0  0  0  0  0  0
   -1.2195  -17.4807   18.5245 H   0  0  0  0  0  0  0  0  0  0  0  0
   -1.3359  -15.9394   19.3371 H   0  0  0  0  0  0  0  0  0  0  0  0
    4.2165  -13.2845   19.2291 H   0  0  0  0  0  0  0  0  0  0  0  0
    6.2234  -12.0709   18.7800 H   0  0  0  0  0  0  0  0  0  0  0  0
    7.3691  -12.2378   16.5651 H   0  0  0  0  0  0  0  0  0  0  0  0
    6.3833  -13.7580   14.8557 H   0  0  0  0  0  0  0  0  0  0  0  0
    4.3709  -15.0637   15.3259 H   0  0  0  0  0  0  0  0  0  0  0  0
    1.9561  -14.5966   15.4681 H   0  0  0  0  0  0  0  0  0  0  0  0
   -2.6656  -16.3906   21.0646 H   0  0  0  0  0  0  0  0  0  0  0  0
   -2.2719  -17.9619   23.7792 H   0  0  0  0  0  0  0  0  0  0  0  0
   -5.1847  -15.8138   25.3235 H   0  0  0  0  0  0  0  0  0  0  0  0
   -6.7880  -15.7811   27.1363 H   0  0  0  0  0  0  0  0  0  0  0  0
   -8.5740  -17.2630   28.6059 H   0  0  0  0  0  0  0  0  0  0  0  0
   -4.7304  -20.0509   25.7349 H   0  0  0  0  0  0  0  0  0  0  0  0
   -6.6984  -22.5326   28.1068 H   0  0  0  0  0  0  0  0  0  0  0  0
   -7.3765  -22.5342   26.6782 H   0  0  0  0  0  0  0  0  0  0  0  0
   -9.4634  -23.5389   27.2627 H   0  0  0  0  0  0  0  0  0  0  0  0
   -9.0317  -23.7694   28.7656 H   0  0  0  0  0  0  0  0  0  0  0  0
  -11.0944  -22.5715   29.0262 H   0  0  0  0  0  0  0  0  0  0  0  0
  -11.0261  -21.8402   27.5020 H   0  0  0  0  0  0  0  0  0  0  0  0
  -11.1851  -20.2656   29.3758 H   0  0  0  0  0  0  0  0  0  0  0  0
  -10.1205  -20.8212   30.1976 H   0  0  0  0  0  0  0  0  0  0  0  0
  1  2  2  0
  2  3  1  0
  3  4  1  0
  4  5  2  0
  5  6  1  0
  6  7  1  0
  7  8  2  0
  8  9  1  0
  9 10  2  0
 10 11  1  0
 11 12  2  0
  6 13  2  0
 13 14  1  0
  2 15  1  0
 15 16  1  0
 16 17  1  0
 17 18  2  0
 17 19  1  0
 19 20  2  0
 20 21  1  0
 21 22  2  0
 22 23  1  0
 23 24  1  0
 24 25  2  0
 25 26  1  0
 26 27  2  0
 25 28  1  0
 28 29  1  0
 29 30  1  0
 30 31  1  0
 14  4  1  0
 27 19  1  0
 12  7  1  0
 26 22  1  0
 31 24  1  0
  3 32  1  0
  3 33  1  0
  8 34  1  0
  9 35  1  0
 10 36  1  0
 11 37  1  0
 12 38  1  0
 13 39  1  0
 15 40  1  0
 16 41  1  0
 20 42  1  0
 21 43  1  0
 23 44  1  0
 27 45  1  0
 28 46  1  0
 28 47  1  0
 29 48  1  0
 29 49  1  0
 30 50  1  0
 30 51  1  0
 31 52  1  0
 31 53  1  0
M  END
>  <Energy>  (233) 
547.47988331797831

>  <compound_id>  (233) 
64905

>  <target_id>  (233) 
1

>  <reference_id>  (233) 
71

>  <inspiration_ids>  (233) 
[71, 39]

>  <energy_score>  (233) 
378.7904958001758

>  <distance_score>  (233) 
14.478905307209807

>  <path>  (233) 
/opt/xchem-fragalysis-2/maxwin/BulkDock/SCRATCH/511022/C64905-P71/C64905-P71.minimised.mol

>  <scratch_subdir>  (233) 
/opt/xchem-fragalysis-2/maxwin/BulkDock/SCRATCH/511022/C64905-P71

>  <fragmenstein_runtime>  (233) 
33.79820442199707

>  <fragmenstein_outcome>  (233) 
too moved

>  <fragmenstein_mode>  (233) 
expansion

>  <fragmenstein_error>  (233) 


$$$$
C64905-P39
     RDKit          3D

 53 57  0  0  0  0  0  0  0  0999 V2000
    4.4829  -15.2470   24.9792 O   0  0  0  0  0  0  0  0  0  0  0  0
    4.1608  -14.0756   25.0238 C   0  0  0  0  0  0  0  0  0  0  0  0
    5.5452  -13.0674   25.9296 C   0  0  0  0  0  0  0  0  0  0  0  0
    6.9972  -12.2511   25.4149 C   0  0  0  0  0  0  0  0  0  0  0  0
    7.3016  -10.9969   24.9993 N   0  0  0  0  0  0  0  0  0  0  0  0
    8.7460  -10.7277   25.0182 C   0  0  0  0  0  0  0  0  0  0  0  0
    9.5283   -9.5149   24.5589 C   0  0  0  0  0  0  0  0  0  0  0  0
    9.1618   -8.2051   24.8494 C   0  0  0  0  0  0  0  0  0  0  0  0
    9.9478   -7.1093   24.4059 C   0  0  0  0  0  0  0  0  0  0  0  0
   11.1071   -7.2920   23.6538 C   0  0  0  0  0  0  0  0  0  0  0  0
   11.5051   -8.5827   23.3572 C   0  0  0  0  0  0  0  0  0  0  0  0
   10.7358   -9.6694   23.8166 C   0  0  0  0  0  0  0  0  0  0  0  0
    9.4671  -11.8039   25.4777 C   0  0  0  0  0  0  0  0  0  0  0  0
    8.4643  -13.0912   25.9291 S   0  0  0  0  0  0  0  0  0  0  0  0
    2.5926  -13.3782   24.3605 N   0  0  0  0  0  0  0  0  0  0  0  0
    1.0961  -14.2504   23.6088 N   0  0  0  0  0  0  0  0  0  0  0  0
   -0.6152  -14.3840   24.1734 C   0  0  0  0  0  0  0  0  0  0  0  0
   -1.1710  -13.8378   25.1405 O   0  0  0  0  0  0  0  0  0  0  0  0
   -1.8026  -15.5877   23.3782 C   0  0  0  0  0  0  0  0  0  0  0  0
   -2.8981  -15.8774   24.3058 C   0  0  0  0  0  0  0  0  0  0  0  0
   -3.8688  -16.8921   24.1878 C   0  0  0  0  0  0  0  0  0  0  0  0
   -3.7183  -17.7401   23.1047 C   0  0  0  0  0  0  0  0  0  0  0  0
   -4.4027  -18.8972   22.7805 N   0  0  0  0  0  0  0  0  0  0  0  0
   -3.8104  -19.4706   21.6924 C   0  0  0  0  0  0  0  0  0  0  0  0
   -2.8069  -18.6370   21.2481 C   0  0  0  0  0  0  0  0  0  0  0  0
   -2.7290  -17.5287   22.1371 C   0  0  0  0  0  0  0  0  0  0  0  0
   -1.8183  -16.4132   22.2342 C   0  0  0  0  0  0  0  0  0  0  0  0
   -1.9236  -18.9797   20.0910 C   0  0  0  0  0  0  0  0  0  0  0  0
   -2.4730  -20.1727   19.2893 C   0  0  0  0  0  0  0  0  0  0  0  0
   -3.0167  -21.2835   20.2050 C   0  0  0  0  0  0  0  0  0  0  0  0
   -4.1730  -20.7729   21.0823 C   0  0  0  0  0  0  0  0  0  0  0  0
    6.0083  -14.0013   26.3276 H   0  0  0  0  0  0  0  0  0  0  0  0
    5.4072  -12.7345   26.9754 H   0  0  0  0  0  0  0  0  0  0  0  0
    8.2606   -8.0396   25.4316 H   0  0  0  0  0  0  0  0  0  0  0  0
    9.6515   -6.0913   24.6427 H   0  0  0  0  0  0  0  0  0  0  0  0
   11.6858   -6.4363   23.3169 H   0  0  0  0  0  0  0  0  0  0  0  0
   12.4085   -8.7609   22.7804 H   0  0  0  0  0  0  0  0  0  0  0  0
   11.0799  -10.6690   23.5520 H   0  0  0  0  0  0  0  0  0  0  0  0
   10.5367  -11.8925   25.6050 H   0  0  0  0  0  0  0  0  0  0  0  0
    2.5308  -12.4050   24.5966 H   0  0  0  0  0  0  0  0  0  0  0  0
    1.2242  -14.7657   22.7227 H   0  0  0  0  0  0  0  0  0  0  0  0
   -2.9761  -15.2794   25.2204 H   0  0  0  0  0  0  0  0  0  0  0  0
   -4.6230  -17.0411   24.9526 H   0  0  0  0  0  0  0  0  0  0  0  0
   -5.1603  -19.2954   23.3185 H   0  0  0  0  0  0  0  0  0  0  0  0
   -1.0338  -16.3740   21.4918 H   0  0  0  0  0  0  0  0  0  0  0  0
   -0.9284  -19.2338   20.4767 H   0  0  0  0  0  0  0  0  0  0  0  0
   -1.8071  -18.1142   19.4292 H   0  0  0  0  0  0  0  0  0  0  0  0
   -3.2815  -19.8275   18.6319 H   0  0  0  0  0  0  0  0  0  0  0  0
   -1.6845  -20.5720   18.6415 H   0  0  0  0  0  0  0  0  0  0  0  0
   -2.2035  -21.6540   20.8424 H   0  0  0  0  0  0  0  0  0  0  0  0
   -3.3635  -22.1292   19.6006 H   0  0  0  0  0  0  0  0  0  0  0  0
   -5.0467  -20.6163   20.4440 H   0  0  0  0  0  0  0  0  0  0  0  0
   -4.4142  -21.5131   21.8511 H   0  0  0  0  0  0  0  0  0  0  0  0
  1  2  2  0
  2  3  1  0
  3  4  1  0
  4  5  2  0
  5  6  1  0
  6  7  1  0
  7  8  2  0
  8  9  1  0
  9 10  2  0
 10 11  1  0
 11 12  2  0
  6 13  2  0
 13 14  1  0
  2 15  1  0
 15 16  1  0
 16 17  1  0
 17 18  2  0
 17 19  1  0
 19 20  2  0
 20 21  1  0
 21 22  2  0
 22 23  1  0
 23 24  1  0
 24 25  2  0
 25 26  1  0
 26 27  2  0
 25 28  1  0
 28 29  1  0
 29 30  1  0
 30 31  1  0
 14  4  1  0
 27 19  1  0
 12  7  1  0
 26 22  1  0
 31 24  1  0
  3 32  1  0
  3 33  1  0
  8 34  1  0
  9 35  1  0
 10 36  1  0
 11 37  1  0
 12 38  1  0
 13 39  1  0
 15 40  1  0
 16 41  1  0
 20 42  1  0
 21 43  1  0
 23 44  1  0
 27 45  1  0
 28 46  1  0
 28 47  1  0
 29 48  1  0
 29 49  1  0
 30 50  1  0
 30 51  1  0
 31 52  1  0
 31 53  1  0
M  END
>  <Energy>  (234) 
436.55663780392786

>  <compound_id>  (234) 
64905

>  <target_id>  (234) 
1

>  <reference_id>  (234) 
39

>  <inspiration_ids>  (234) 
[71, 39]

>  <energy_score>  (234) 
267.8672502861171

>  <distance_score>  (234) 
13.505839058918568

>  <path>  (234) 
/opt/xchem-fragalysis-2/maxwin/BulkDock/SCRATCH/511022/C64905-P39/C64905-P39.minimised.mol

>  <scratch_subdir>  (234) 
/opt/xchem-fragalysis-2/maxwin/BulkDock/SCRATCH/511022/C64905-P39

>  <fragmenstein_runtime>  (234) 
30.517053365707397

>  <fragmenstein_outcome>  (234) 
too moved

>  <fragmenstein_mode>  (234) 
expansion

>  <fragmenstein_error>  (234) 


$$$$
C61022-P46
     RDKit          3D

 34 36  0  0  0  0  0  0  0  0999 V2000
  -15.5764  -14.2481   17.6909 C   0  0  0  0  0  0  0  0  0  0  0  0
  -15.7175  -12.7459   17.9167 C   0  0  0  0  0  0  0  0  0  0  0  0
  -14.9880  -12.3119   19.0976 N   0  0  0  0  0  0  0  0  0  0  0  0
  -15.3740  -13.0490   20.3077 C   0  0  0  0  0  0  0  0  0  0  0  0
  -15.0544  -14.5757   20.2430 C   0  0  0  0  0  0  0  0  0  0  0  0
  -15.4564  -15.3851   21.5587 C   0  0  0  0  0  0  0  0  0  0  0  0
  -15.2198  -14.5921   22.8749 C   0  0  0  0  0  0  0  0  0  0  0  0
  -15.1943  -15.6452   23.9770 C   0  0  0  0  0  0  0  0  0  0  0  0
  -14.3387  -16.7398   23.3628 C   0  0  0  0  0  0  0  0  0  0  0  0
  -14.7240  -16.7204   21.8918 C   0  0  0  0  0  0  0  0  0  0  0  0
  -13.9089  -17.5419   20.9213 C   0  0  0  0  0  0  0  0  0  0  0  0
  -15.2763  -18.0105   21.3200 C   0  0  0  0  0  0  0  0  0  0  0  0
  -15.7600  -15.0991   18.9633 C   0  0  0  0  0  0  0  0  0  0  0  0
  -16.3262  -14.5627   16.9537 H   0  0  0  0  0  0  0  0  0  0  0  0
  -14.6207  -14.5036   17.2377 H   0  0  0  0  0  0  0  0  0  0  0  0
  -15.3591  -12.2033   17.0356 H   0  0  0  0  0  0  0  0  0  0  0  0
  -16.7787  -12.4932   18.0319 H   0  0  0  0  0  0  0  0  0  0  0  0
  -15.1423  -11.3115   19.2415 H   0  0  0  0  0  0  0  0  0  0  0  0
  -16.4427  -12.8995   20.5086 H   0  0  0  0  0  0  0  0  0  0  0  0
  -14.8369  -12.6021   21.1497 H   0  0  0  0  0  0  0  0  0  0  0  0
  -13.9745  -14.6968   20.1192 H   0  0  0  0  0  0  0  0  0  0  0  0
  -16.5317  -15.6052   21.5039 H   0  0  0  0  0  0  0  0  0  0  0  0
  -16.0007  -13.8450   23.0470 H   0  0  0  0  0  0  0  0  0  0  0  0
  -14.2502  -14.0794   22.8427 H   0  0  0  0  0  0  0  0  0  0  0  0
  -14.7838  -15.2550   24.9113 H   0  0  0  0  0  0  0  0  0  0  0  0
  -16.2088  -16.0136   24.1691 H   0  0  0  0  0  0  0  0  0  0  0  0
  -14.5210  -17.7046   23.8462 H   0  0  0  0  0  0  0  0  0  0  0  0
  -13.2748  -16.4952   23.4622 H   0  0  0  0  0  0  0  0  0  0  0  0
  -13.0593  -18.0997   21.3012 H   0  0  0  0  0  0  0  0  0  0  0  0
  -13.7697  -17.1891   19.9079 H   0  0  0  0  0  0  0  0  0  0  0  0
  -15.3497  -18.8821   21.9622 H   0  0  0  0  0  0  0  0  0  0  0  0
  -16.0666  -17.9547   20.5793 H   0  0  0  0  0  0  0  0  0  0  0  0
  -16.8380  -15.1538   19.1681 H   0  0  0  0  0  0  0  0  0  0  0  0
  -15.4442  -16.1254   18.7500 H   0  0  0  0  0  0  0  0  0  0  0  0
  1  2  1  0
  2  3  1  0
  3  4  1  0
  4  5  1  0
  5  6  1  0
  6  7  1  0
  7  8  1  0
  8  9  1  0
  9 10  1  0
 10 11  1  0
 11 12  1  0
  5 13  1  0
 13  1  1  0
 10  6  1  0
 12 10  1  0
  1 14  1  0
  1 15  1  0
  2 16  1  0
  2 17  1  0
  3 18  1  0
  4 19  1  0
  4 20  1  0
  5 21  1  0
  6 22  1  0
  7 23  1  0
  7 24  1  0
  8 25  1  0
  8 26  1  0
  9 27  1  0
  9 28  1  0
 11 29  1  0
 11 30  1  0
 12 31  1  0
 12 32  1  0
 13 33  1  0
 13 34  1  0
M  END
>  <Energy>  (235) 
37.311213301264402

>  <compound_id>  (235) 
61022

>  <target_id>  (235) 
1

>  <reference_id>  (235) 
46

>  <inspiration_ids>  (235) 
[46, 99]

>  <energy_score>  (235) 
-27.23922878653488

>  <distance_score>  (235) 
15.049091094442913

>  <path>  (235) 
/opt/xchem-fragalysis-2/maxwin/BulkDock/SCRATCH/511022/C61022-P46/C61022-P46.minimised.mol

>  <scratch_subdir>  (235) 
/opt/xchem-fragalysis-2/maxwin/BulkDock/SCRATCH/511022/C61022-P46

>  <fragmenstein_runtime>  (235) 
17.719483137130737

>  <fragmenstein_outcome>  (235) 
too moved

>  <fragmenstein_mode>  (235) 
expansion

>  <fragmenstein_error>  (235) 


$$$$
C61022-P99
     RDKit          3D

 34 36  0  0  0  0  0  0  0  0999 V2000
  -10.3730   -9.7135   14.8976 C   0  0  0  0  0  0  0  0  0  0  0  0
  -11.1975   -7.7840   15.5757 C   0  0  0  0  0  0  0  0  0  0  0  0
  -10.5928   -7.6728   17.6751 N   0  0  0  0  0  0  0  0  0  0  0  0
  -10.8369   -9.6432   18.5985 C   0  0  0  0  0  0  0  0  0  0  0  0
  -10.5393  -11.6712   18.1034 C   0  0  0  0  0  0  0  0  0  0  0  0
   -9.5520  -13.2531   19.1709 C   0  0  0  0  0  0  0  0  0  0  0  0
   -9.7096  -13.4638   21.1066 C   0  0  0  0  0  0  0  0  0  0  0  0
   -8.5388  -14.2276   21.6620 C   0  0  0  0  0  0  0  0  0  0  0  0
   -8.7863  -15.4899   20.9812 C   0  0  0  0  0  0  0  0  0  0  0  0
   -9.5374  -15.1761   19.6234 C   0  0  0  0  0  0  0  0  0  0  0  0
  -10.7305  -16.2179   19.5778 C   0  0  0  0  0  0  0  0  0  0  0  0
   -9.4889  -16.5014   18.8233 C   0  0  0  0  0  0  0  0  0  0  0  0
  -11.1407  -11.2416   16.2148 C   0  0  0  0  0  0  0  0  0  0  0  0
   -9.2936   -9.7013   14.7252 H   0  0  0  0  0  0  0  0  0  0  0  0
  -10.7731   -9.7157   13.8913 H   0  0  0  0  0  0  0  0  0  0  0  0
  -12.3075   -7.8348   15.2622 H   0  0  0  0  0  0  0  0  0  0  0  0
  -11.0395   -6.7858   15.0056 H   0  0  0  0  0  0  0  0  0  0  0  0
  -10.7093   -6.8002   18.2003 H   0  0  0  0  0  0  0  0  0  0  0  0
   -9.7932   -9.9963   18.9323 H   0  0  0  0  0  0  0  0  0  0  0  0
  -11.8208   -9.9989   18.7851 H   0  0  0  0  0  0  0  0  0  0  0  0
   -9.6649  -12.0353   17.5924 H   0  0  0  0  0  0  0  0  0  0  0  0
  -10.4182  -13.6715   18.7810 H   0  0  0  0  0  0  0  0  0  0  0  0
   -9.7804  -12.5915   21.7589 H   0  0  0  0  0  0  0  0  0  0  0  0
  -10.6600  -13.9796   21.3207 H   0  0  0  0  0  0  0  0  0  0  0  0
   -7.5632  -13.8172   21.3969 H   0  0  0  0  0  0  0  0  0  0  0  0
   -8.5808  -14.3278   22.7510 H   0  0  0  0  0  0  0  0  0  0  0  0
   -7.8967  -16.1090   20.8656 H   0  0  0  0  0  0  0  0  0  0  0  0
   -9.4313  -16.0929   21.6367 H   0  0  0  0  0  0  0  0  0  0  0  0
  -10.9291  -16.8420   20.4519 H   0  0  0  0  0  0  0  0  0  0  0  0
  -11.6290  -16.2483   18.9857 H   0  0  0  0  0  0  0  0  0  0  0  0
   -8.8833  -17.3290   19.2025 H   0  0  0  0  0  0  0  0  0  0  0  0
   -9.4879  -16.5896   17.7548 H   0  0  0  0  0  0  0  0  0  0  0  0
  -12.2847  -11.2101   16.3549 H   0  0  0  0  0  0  0  0  0  0  0  0
  -10.7142  -12.2195   15.8502 H   0  0  0  0  0  0  0  0  0  0  0  0
  1  2  1  0
  2  3  1  0
  3  4  1  0
  4  5  1  0
  5  6  1  0
  6  7  1  0
  7  8  1  0
  8  9  1  0
  9 10  1  0
 10 11  1  0
 11 12  1  0
  5 13  1  0
 13  1  1  0
 10  6  1  0
 12 10  1  0
  1 14  1  0
  1 15  1  0
  2 16  1  0
  2 17  1  0
  3 18  1  0
  4 19  1  0
  4 20  1  0
  5 21  1  0
  6 22  1  0
  7 23  1  0
  7 24  1  0
  8 25  1  0
  8 26  1  0
  9 27  1  0
  9 28  1  0
 11 29  1  0
 11 30  1  0
 12 31  1  0
 12 32  1  0
 13 33  1  0
 13 34  1  0
M  END
>  <Energy>  (236) 
1161.932051219557

>  <compound_id>  (236) 
61022

>  <target_id>  (236) 
1

>  <reference_id>  (236) 
99

>  <inspiration_ids>  (236) 
[46, 99]

>  <energy_score>  (236) 
1097.381609131758

>  <distance_score>  (236) 
13.792108306857005

>  <path>  (236) 
/opt/xchem-fragalysis-2/maxwin/BulkDock/SCRATCH/511022/C61022-P99/C61022-P99.minimised.mol

>  <scratch_subdir>  (236) 
/opt/xchem-fragalysis-2/maxwin/BulkDock/SCRATCH/511022/C61022-P99

>  <fragmenstein_runtime>  (236) 
15.866082429885864

>  <fragmenstein_outcome>  (236) 
too moved

>  <fragmenstein_mode>  (236) 
expansion

>  <fragmenstein_error>  (236) 


$$$$
C61025-P46
     RDKit          3D

 36 37  0  0  0  0  0  0  0  0999 V2000
  -14.7352  -14.9208   26.6390 C   0  0  0  0  0  0  0  0  0  0  0  0
  -13.5672  -14.3892   27.4633 C   0  0  0  0  0  0  0  0  0  0  0  0
  -12.3786  -13.8457   26.6601 C   0  0  0  0  0  0  0  0  0  0  0  0
  -12.6464  -12.4803   25.9145 C   0  0  0  0  0  0  0  0  0  0  0  0
  -13.3034  -12.4857   24.4641 C   0  0  0  0  0  0  0  0  0  0  0  0
  -13.2805  -10.9500   23.3331 C   0  0  0  0  0  0  0  0  0  0  0  0
  -12.3962   -9.5572   23.4295 C   0  0  0  0  0  0  0  0  0  0  0  0
  -12.4751   -8.4218   22.2880 C   0  0  0  0  0  0  0  0  0  0  0  0
  -13.7856   -8.1917   21.5447 C   0  0  0  0  0  0  0  0  0  0  0  0
  -14.8222   -9.0103   22.1158 N   0  0  0  0  0  0  0  0  0  0  0  0
  -14.5394  -10.4530   22.4280 C   0  0  0  0  0  0  0  0  0  0  0  0
  -14.6245  -13.3775   24.5336 C   0  0  0  0  0  0  0  0  0  0  0  0
  -14.5686  -14.8316   25.1143 C   0  0  0  0  0  0  0  0  0  0  0  0
  -15.6258  -14.3354   26.9083 H   0  0  0  0  0  0  0  0  0  0  0  0
  -15.0025  -15.9350   26.9568 H   0  0  0  0  0  0  0  0  0  0  0  0
  -13.2370  -15.1249   28.1983 H   0  0  0  0  0  0  0  0  0  0  0  0
  -13.9474  -13.5681   28.0873 H   0  0  0  0  0  0  0  0  0  0  0  0
  -11.9681  -14.5664   25.9514 H   0  0  0  0  0  0  0  0  0  0  0  0
  -11.5771  -13.6474   27.3843 H   0  0  0  0  0  0  0  0  0  0  0  0
  -13.2474  -11.8275   26.5589 H   0  0  0  0  0  0  0  0  0  0  0  0
  -11.6741  -11.9837   25.7989 H   0  0  0  0  0  0  0  0  0  0  0  0
  -12.6064  -13.1133   23.8836 H   0  0  0  0  0  0  0  0  0  0  0  0
  -12.6627  -11.4672   22.5983 H   0  0  0  0  0  0  0  0  0  0  0  0
  -11.3603   -9.8017   23.6845 H   0  0  0  0  0  0  0  0  0  0  0  0
  -12.7876   -9.0737   24.3370 H   0  0  0  0  0  0  0  0  0  0  0  0
  -12.1881   -7.4856   22.7812 H   0  0  0  0  0  0  0  0  0  0  0  0
  -11.7652   -8.6434   21.5256 H   0  0  0  0  0  0  0  0  0  0  0  0
  -14.0861   -7.1413   21.6491 H   0  0  0  0  0  0  0  0  0  0  0  0
  -13.8016   -8.3896   20.4806 H   0  0  0  0  0  0  0  0  0  0  0  0
  -15.1286   -8.5746   22.9840 H   0  0  0  0  0  0  0  0  0  0  0  0
  -15.4038  -10.7445   23.0423 H   0  0  0  0  0  0  0  0  0  0  0  0
  -14.6847  -11.0785   21.5448 H   0  0  0  0  0  0  0  0  0  0  0  0
  -15.3937  -12.8020   25.0629 H   0  0  0  0  0  0  0  0  0  0  0  0
  -14.9736  -13.4647   23.4961 H   0  0  0  0  0  0  0  0  0  0  0  0
  -13.6690  -15.3122   24.7235 H   0  0  0  0  0  0  0  0  0  0  0  0
  -15.4158  -15.3759   24.6761 H   0  0  0  0  0  0  0  0  0  0  0  0
  1  2  1  0
  2  3  1  0
  3  4  1  0
  4  5  1  0
  5  6  1  0
  6  7  1  0
  7  8  1  0
  8  9  1  0
  9 10  1  0
 10 11  1  0
  5 12  1  0
 12 13  1  0
 13  1  1  0
 11  6  1  0
  1 14  1  0
  1 15  1  0
  2 16  1  0
  2 17  1  0
  3 18  1  0
  3 19  1  0
  4 20  1  0
  4 21  1  0
  5 22  1  0
  6 23  1  0
  7 24  1  0
  7 25  1  0
  8 26  1  0
  8 27  1  0
  9 28  1  0
  9 29  1  0
 10 30  1  0
 11 31  1  0
 11 32  1  0
 12 33  1  0
 12 34  1  0
 13 35  1  0
 13 36  1  0
M  END
>  <Energy>  (237) 
115.65224523475102

>  <compound_id>  (237) 
61025

>  <target_id>  (237) 
1

>  <reference_id>  (237) 
46

>  <inspiration_ids>  (237) 
[46, 99]

>  <energy_score>  (237) 
57.511667533138734

>  <distance_score>  (237) 
14.881303432845819

>  <path>  (237) 
/opt/xchem-fragalysis-2/maxwin/BulkDock/SCRATCH/511022/C61025-P46/C61025-P46.minimised.mol

>  <scratch_subdir>  (237) 
/opt/xchem-fragalysis-2/maxwin/BulkDock/SCRATCH/511022/C61025-P46

>  <fragmenstein_runtime>  (237) 
22.461406469345093

>  <fragmenstein_outcome>  (237) 
too moved

>  <fragmenstein_mode>  (237) 
expansion

>  <fragmenstein_error>  (237) 


$$$$
C61025-P99
     RDKit          3D

 36 37  0  0  0  0  0  0  0  0999 V2000
  -14.0817  -18.5670   21.6798 C   0  0  0  0  0  0  0  0  0  0  0  0
  -14.5960  -17.5690   22.7072 C   0  0  0  0  0  0  0  0  0  0  0  0
  -15.5285  -16.4847   22.1703 C   0  0  0  0  0  0  0  0  0  0  0  0
  -15.0578  -15.7667   20.8940 C   0  0  0  0  0  0  0  0  0  0  0  0
  -15.5291  -16.3928   19.5433 C   0  0  0  0  0  0  0  0  0  0  0  0
  -15.1849  -15.4215   18.2744 C   0  0  0  0  0  0  0  0  0  0  0  0
  -15.3327  -16.0306   16.8534 C   0  0  0  0  0  0  0  0  0  0  0  0
  -15.0200  -15.0563   15.6917 C   0  0  0  0  0  0  0  0  0  0  0  0
  -15.7345  -13.7173   15.8320 C   0  0  0  0  0  0  0  0  0  0  0  0
  -15.5068  -13.1327   17.1481 N   0  0  0  0  0  0  0  0  0  0  0  0
  -15.9117  -14.0428   18.2412 C   0  0  0  0  0  0  0  0  0  0  0  0
  -14.9124  -17.8099   19.3654 C   0  0  0  0  0  0  0  0  0  0  0  0
  -15.0394  -18.8252   20.5193 C   0  0  0  0  0  0  0  0  0  0  0  0
  -13.8782  -19.5129   22.1975 H   0  0  0  0  0  0  0  0  0  0  0  0
  -13.1146  -18.2257   21.2902 H   0  0  0  0  0  0  0  0  0  0  0  0
  -13.7335  -17.0982   23.1946 H   0  0  0  0  0  0  0  0  0  0  0  0
  -15.1288  -18.1115   23.4987 H   0  0  0  0  0  0  0  0  0  0  0  0
  -15.6360  -15.7336   22.9640 H   0  0  0  0  0  0  0  0  0  0  0  0
  -16.5345  -16.8927   22.0152 H   0  0  0  0  0  0  0  0  0  0  0  0
  -13.9662  -15.6634   20.8995 H   0  0  0  0  0  0  0  0  0  0  0  0
  -15.4641  -14.7508   20.9472 H   0  0  0  0  0  0  0  0  0  0  0  0
  -16.6215  -16.4975   19.5727 H   0  0  0  0  0  0  0  0  0  0  0  0
  -14.1311  -15.2301   18.4126 H   0  0  0  0  0  0  0  0  0  0  0  0
  -16.3645  -16.3872   16.7380 H   0  0  0  0  0  0  0  0  0  0  0  0
  -14.6863  -16.9086   16.7476 H   0  0  0  0  0  0  0  0  0  0  0  0
  -13.9417  -14.9067   15.6096 H   0  0  0  0  0  0  0  0  0  0  0  0
  -15.3253  -15.5277   14.7496 H   0  0  0  0  0  0  0  0  0  0  0  0
  -15.3819  -13.0257   15.0590 H   0  0  0  0  0  0  0  0  0  0  0  0
  -16.8111  -13.8475   15.6705 H   0  0  0  0  0  0  0  0  0  0  0  0
  -14.4930  -12.9652   17.2032 H   0  0  0  0  0  0  0  0  0  0  0  0
  -16.9946  -14.2106   18.1783 H   0  0  0  0  0  0  0  0  0  0  0  0
  -15.7521  -13.5145   19.1844 H   0  0  0  0  0  0  0  0  0  0  0  0
  -13.8518  -17.7055   19.1019 H   0  0  0  0  0  0  0  0  0  0  0  0
  -15.3967  -18.2687   18.4939 H   0  0  0  0  0  0  0  0  0  0  0  0
  -16.0781  -18.9038   20.8587 H   0  0  0  0  0  0  0  0  0  0  0  0
  -14.7822  -19.8079   20.1020 H   0  0  0  0  0  0  0  0  0  0  0  0
  1  2  1  0
  2  3  1  0
  3  4  1  0
  4  5  1  0
  5  6  1  0
  6  7  1  0
  7  8  1  0
  8  9  1  0
  9 10  1  0
 10 11  1  0
  5 12  1  0
 12 13  1  0
 13  1  1  0
 11  6  1  0
  1 14  1  0
  1 15  1  0
  2 16  1  0
  2 17  1  0
  3 18  1  0
  3 19  1  0
  4 20  1  0
  4 21  1  0
  5 22  1  0
  6 23  1  0
  7 24  1  0
  7 25  1  0
  8 26  1  0
  8 27  1  0
  9 28  1  0
  9 29  1  0
 10 30  1  0
 11 31  1  0
 11 32  1  0
 12 33  1  0
 12 34  1  0
 13 35  1  0
 13 36  1  0
M  END
>  <Energy>  (238) 
24.96130158400252

>  <compound_id>  (238) 
61025

>  <target_id>  (238) 
1

>  <reference_id>  (238) 
99

>  <inspiration_ids>  (238) 
[46, 99]

>  <energy_score>  (238) 
-173.386798335918

>  <distance_score>  (238) 
15.358608500445417

>  <path>  (238) 
/opt/xchem-fragalysis-2/maxwin/BulkDock/SCRATCH/511022/C61025-P99/C61025-P99.minimised.mol

>  <scratch_subdir>  (238) 
/opt/xchem-fragalysis-2/maxwin/BulkDock/SCRATCH/511022/C61025-P99

>  <fragmenstein_runtime>  (238) 
28.631218910217285

>  <fragmenstein_outcome>  (238) 
too moved

>  <fragmenstein_mode>  (238) 
expansion

>  <fragmenstein_error>  (238) 


$$$$
C61027-P46
     RDKit          3D

 39 40  0  0  0  0  0  0  0  0999 V2000
   -9.2987  -15.3430   25.5012 C   0  0  0  0  0  0  0  0  0  0  0  0
   -8.2748  -14.2174   25.4554 C   0  0  0  0  0  0  0  0  0  0  0  0
   -8.8095  -12.8634   24.9819 C   0  0  0  0  0  0  0  0  0  0  0  0
   -8.5502  -12.3713   23.5226 C   0  0  0  0  0  0  0  0  0  0  0  0
   -9.3965  -13.0140   22.1773 C   0  0  0  0  0  0  0  0  0  0  0  0
   -8.5061  -13.4511   20.3405 C   0  0  0  0  0  0  0  0  0  0  0  0
   -8.9163  -13.1131   18.9390 C   0  0  0  0  0  0  0  0  0  0  0  0
   -7.9189  -12.6779   17.6619 C   0  0  0  0  0  0  0  0  0  0  0  0
   -6.8970  -11.5715   17.8277 C   0  0  0  0  0  0  0  0  0  0  0  0
   -7.5495  -11.4291   18.9809 N   0  0  0  0  0  0  0  0  0  0  0  0
   -7.0017  -12.5142   19.8662 C   0  0  0  0  0  0  0  0  0  0  0  0
  -10.8624  -13.4811   22.9420 C   0  0  0  0  0  0  0  0  0  0  0  0
  -11.0962  -14.7903   23.7637 C   0  0  0  0  0  0  0  0  0  0  0  0
   -9.9295  -15.6924   24.1642 C   0  0  0  0  0  0  0  0  0  0  0  0
  -10.0757  -15.0921   26.2319 H   0  0  0  0  0  0  0  0  0  0  0  0
   -8.7917  -16.2345   25.8902 H   0  0  0  0  0  0  0  0  0  0  0  0
   -7.9323  -14.0822   26.4915 H   0  0  0  0  0  0  0  0  0  0  0  0
   -7.3760  -14.5208   24.9136 H   0  0  0  0  0  0  0  0  0  0  0  0
   -8.2924  -12.1171   25.6050 H   0  0  0  0  0  0  0  0  0  0  0  0
   -9.8583  -12.7434   25.2687 H   0  0  0  0  0  0  0  0  0  0  0  0
   -8.8839  -11.3217   23.5652 H   0  0  0  0  0  0  0  0  0  0  0  0
   -7.4726  -12.2543   23.3518 H   0  0  0  0  0  0  0  0  0  0  0  0
   -9.8743  -12.0997   21.9900 H   0  0  0  0  0  0  0  0  0  0  0  0
   -8.2920  -14.5445   20.3366 H   0  0  0  0  0  0  0  0  0  0  0  0
   -9.9440  -12.8416   18.7210 H   0  0  0  0  0  0  0  0  0  0  0  0
   -8.5962  -14.1390   18.8318 H   0  0  0  0  0  0  0  0  0  0  0  0
   -8.4577  -12.3202   16.8133 H   0  0  0  0  0  0  0  0  0  0  0  0
   -7.4693  -13.5950   17.2680 H   0  0  0  0  0  0  0  0  0  0  0  0
   -5.8342  -11.8764   17.8806 H   0  0  0  0  0  0  0  0  0  0  0  0
   -6.8900  -10.7060   17.1711 H   0  0  0  0  0  0  0  0  0  0  0  0
   -7.7819  -10.5391   19.3681 H   0  0  0  0  0  0  0  0  0  0  0  0
   -6.5767  -12.0928   20.7837 H   0  0  0  0  0  0  0  0  0  0  0  0
   -6.0776  -12.7691   19.3995 H   0  0  0  0  0  0  0  0  0  0  0  0
  -11.1311  -12.6454   23.6058 H   0  0  0  0  0  0  0  0  0  0  0  0
  -11.6659  -13.4252   22.1977 H   0  0  0  0  0  0  0  0  0  0  0  0
  -11.7740  -15.4103   23.1579 H   0  0  0  0  0  0  0  0  0  0  0  0
  -11.6937  -14.5358   24.6488 H   0  0  0  0  0  0  0  0  0  0  0  0
  -10.3357  -16.7057   24.2535 H   0  0  0  0  0  0  0  0  0  0  0  0
   -9.1706  -15.7720   23.3853 H   0  0  0  0  0  0  0  0  0  0  0  0
  1  2  1  0
  2  3  1  0
  3  4  1  0
  4  5  1  0
  5  6  1  0
  6  7  1  0
  7  8  1  0
  8  9  1  0
  9 10  1  0
 10 11  1  0
  5 12  1  0
 12 13  1  0
 13 14  1  0
 14  1  1  0
 11  6  1  0
  1 15  1  0
  1 16  1  0
  2 17  1  0
  2 18  1  0
  3 19  1  0
  3 20  1  0
  4 21  1  0
  4 22  1  0
  5 23  1  0
  6 24  1  0
  7 25  1  0
  7 26  1  0
  8 27  1  0
  8 28  1  0
  9 29  1  0
  9 30  1  0
 10 31  1  0
 11 32  1  0
 11 33  1  0
 12 34  1  0
 12 35  1  0
 13 36  1  0
 13 37  1  0
 14 38  1  0
 14 39  1  0
M  END
>  <Energy>  (239) 
346.92414135256428

>  <compound_id>  (239) 
61027

>  <target_id>  (239) 
1

>  <reference_id>  (239) 
46

>  <inspiration_ids>  (239) 
[46, 99]

>  <energy_score>  (239) 
277.42250425102407

>  <distance_score>  (239) 
13.975573990729425

>  <path>  (239) 
/opt/xchem-fragalysis-2/maxwin/BulkDock/SCRATCH/511022/C61027-P46/C61027-P46.minimised.mol

>  <scratch_subdir>  (239) 
/opt/xchem-fragalysis-2/maxwin/BulkDock/SCRATCH/511022/C61027-P46

>  <fragmenstein_runtime>  (239) 
30.940716981887817

>  <fragmenstein_outcome>  (239) 
too moved

>  <fragmenstein_mode>  (239) 
expansion

>  <fragmenstein_error>  (239) 


$$$$
C61027-P99
     RDKit          3D

 39 40  0  0  0  0  0  0  0  0999 V2000
  -10.1207  -20.6011   21.1191 C   0  0  0  0  0  0  0  0  0  0  0  0
  -10.6584  -19.1835   20.9573 C   0  0  0  0  0  0  0  0  0  0  0  0
  -10.0394  -18.3208   19.8494 C   0  0  0  0  0  0  0  0  0  0  0  0
   -9.9517  -18.9741   18.4547 C   0  0  0  0  0  0  0  0  0  0  0  0
   -8.5217  -19.2079   17.8599 C   0  0  0  0  0  0  0  0  0  0  0  0
   -8.0236  -18.0050   16.8678 C   0  0  0  0  0  0  0  0  0  0  0  0
   -6.4924  -17.8380   16.6842 C   0  0  0  0  0  0  0  0  0  0  0  0
   -6.1255  -16.6636   15.7475 C   0  0  0  0  0  0  0  0  0  0  0  0
   -6.7680  -16.8156   14.3760 C   0  0  0  0  0  0  0  0  0  0  0  0
   -8.2087  -17.0203   14.4768 N   0  0  0  0  0  0  0  0  0  0  0  0
   -8.5791  -18.1160   15.4039 C   0  0  0  0  0  0  0  0  0  0  0  0
   -7.5293  -19.6577   18.9702 C   0  0  0  0  0  0  0  0  0  0  0  0
   -7.9469  -20.9189   19.7682 C   0  0  0  0  0  0  0  0  0  0  0  0
   -8.6009  -20.7106   21.1411 C   0  0  0  0  0  0  0  0  0  0  0  0
  -10.5112  -20.9883   22.0695 H   0  0  0  0  0  0  0  0  0  0  0  0
  -10.5368  -21.2551   20.3441 H   0  0  0  0  0  0  0  0  0  0  0  0
  -10.5358  -18.6478   21.9077 H   0  0  0  0  0  0  0  0  0  0  0  0
  -11.7410  -19.2484   20.7888 H   0  0  0  0  0  0  0  0  0  0  0  0
  -10.6834  -17.4385   19.7591 H   0  0  0  0  0  0  0  0  0  0  0  0
   -9.0761  -17.9216   20.1771 H   0  0  0  0  0  0  0  0  0  0  0  0
  -10.4787  -19.9355   18.4642 H   0  0  0  0  0  0  0  0  0  0  0  0
  -10.5180  -18.3564   17.7468 H   0  0  0  0  0  0  0  0  0  0  0  0
   -8.6210  -20.0723   17.1863 H   0  0  0  0  0  0  0  0  0  0  0  0
   -8.4234  -17.0840   17.2994 H   0  0  0  0  0  0  0  0  0  0  0  0
   -6.0801  -18.7647   16.2630 H   0  0  0  0  0  0  0  0  0  0  0  0
   -6.0061  -17.7088   17.6532 H   0  0  0  0  0  0  0  0  0  0  0  0
   -5.0358  -16.6193   15.6383 H   0  0  0  0  0  0  0  0  0  0  0  0
   -6.4388  -15.7157   16.1913 H   0  0  0  0  0  0  0  0  0  0  0  0
   -6.3202  -17.6655   13.8475 H   0  0  0  0  0  0  0  0  0  0  0  0
   -6.5679  -15.9272   13.7674 H   0  0  0  0  0  0  0  0  0  0  0  0
   -8.6393  -16.1518   14.7764 H   0  0  0  0  0  0  0  0  0  0  0  0
   -8.2336  -19.0614   14.9649 H   0  0  0  0  0  0  0  0  0  0  0  0
   -9.6709  -18.1952   15.4322 H   0  0  0  0  0  0  0  0  0  0  0  0
   -7.2676  -18.8334   19.6411 H   0  0  0  0  0  0  0  0  0  0  0  0
   -6.5930  -19.9204   18.4598 H   0  0  0  0  0  0  0  0  0  0  0  0
   -7.0136  -21.4660   19.9642 H   0  0  0  0  0  0  0  0  0  0  0  0
   -8.5488  -21.5891   19.1434 H   0  0  0  0  0  0  0  0  0  0  0  0
   -8.1443  -19.8642   21.6661 H   0  0  0  0  0  0  0  0  0  0  0  0
   -8.3603  -21.6080   21.7265 H   0  0  0  0  0  0  0  0  0  0  0  0
  1  2  1  0
  2  3  1  0
  3  4  1  0
  4  5  1  0
  5  6  1  0
  6  7  1  0
  7  8  1  0
  8  9  1  0
  9 10  1  0
 10 11  1  0
  5 12  1  0
 12 13  1  0
 13 14  1  0
 14  1  1  0
 11  6  1  0
  1 15  1  0
  1 16  1  0
  2 17  1  0
  2 18  1  0
  3 19  1  0
  3 20  1  0
  4 21  1  0
  4 22  1  0
  5 23  1  0
  6 24  1  0
  7 25  1  0
  7 26  1  0
  8 27  1  0
  8 28  1  0
  9 29  1  0
  9 30  1  0
 10 31  1  0
 11 32  1  0
 11 33  1  0
 12 34  1  0
 12 35  1  0
 13 36  1  0
 13 37  1  0
 14 38  1  0
 14 39  1  0
M  END
>  <Energy>  (240) 
36.30027430342669

>  <compound_id>  (240) 
61027

>  <target_id>  (240) 
1

>  <reference_id>  (240) 
99

>  <inspiration_ids>  (240) 
[46, 99]

>  <energy_score>  (240) 
-33.20136279811413

>  <distance_score>  (240) 
14.96480159136619

>  <path>  (240) 
/opt/xchem-fragalysis-2/maxwin/BulkDock/SCRATCH/511022/C61027-P99/C61027-P99.minimised.mol

>  <scratch_subdir>  (240) 
/opt/xchem-fragalysis-2/maxwin/BulkDock/SCRATCH/511022/C61027-P99

>  <fragmenstein_runtime>  (240) 
25.00790762901306

>  <fragmenstein_outcome>  (240) 
too moved

>  <fragmenstein_mode>  (240) 
expansion

>  <fragmenstein_error>  (240) 


$$$$
C61028-P46
     RDKit          3D

 34 36  0  0  0  0  0  0  0  0999 V2000
   -9.2851  -12.5883   14.4428 C   0  0  0  0  0  0  0  0  0  0  0  0
   -8.7180  -11.8203   13.2468 C   0  0  0  0  0  0  0  0  0  0  0  0
   -7.3351  -12.3191   12.9103 N   0  0  0  0  0  0  0  0  0  0  0  0
   -6.9231  -13.6796   13.5183 C   0  0  0  0  0  0  0  0  0  0  0  0
   -7.6896  -14.8738   14.9560 C   0  0  0  0  0  0  0  0  0  0  0  0
   -7.3597  -16.3957   16.1469 C   0  0  0  0  0  0  0  0  0  0  0  0
   -8.1830  -16.9629   17.4987 C   0  0  0  0  0  0  0  0  0  0  0  0
   -7.6022  -17.8407   18.6466 C   0  0  0  0  0  0  0  0  0  0  0  0
   -6.6644  -18.8884   18.1093 C   0  0  0  0  0  0  0  0  0  0  0  0
   -5.6653  -18.2636   17.1927 C   0  0  0  0  0  0  0  0  0  0  0  0
   -5.8028  -18.5268   15.7247 C   0  0  0  0  0  0  0  0  0  0  0  0
   -5.9668  -17.1017   16.2142 C   0  0  0  0  0  0  0  0  0  0  0  0
   -9.2710  -14.1638   14.3200 C   0  0  0  0  0  0  0  0  0  0  0  0
  -10.2089  -12.3123   14.8884 H   0  0  0  0  0  0  0  0  0  0  0  0
   -8.7453  -12.1912   15.2872 H   0  0  0  0  0  0  0  0  0  0  0  0
   -9.3521  -11.9662   12.3653 H   0  0  0  0  0  0  0  0  0  0  0  0
   -8.6931  -10.7480   13.4658 H   0  0  0  0  0  0  0  0  0  0  0  0
   -6.6171  -11.6991   13.2260 H   0  0  0  0  0  0  0  0  0  0  0  0
   -7.8920  -13.5922   13.2357 H   0  0  0  0  0  0  0  0  0  0  0  0
   -6.1584  -14.1275   12.8493 H   0  0  0  0  0  0  0  0  0  0  0  0
   -7.4678  -15.8617   14.4589 H   0  0  0  0  0  0  0  0  0  0  0  0
   -7.8273  -17.1489   15.4780 H   0  0  0  0  0  0  0  0  0  0  0  0
   -8.7762  -17.7738   17.0731 H   0  0  0  0  0  0  0  0  0  0  0  0
   -8.8126  -16.2157   17.9645 H   0  0  0  0  0  0  0  0  0  0  0  0
   -8.4374  -18.3411   19.1562 H   0  0  0  0  0  0  0  0  0  0  0  0
   -7.1131  -17.2751   19.4391 H   0  0  0  0  0  0  0  0  0  0  0  0
   -7.2339  -19.6668   17.5869 H   0  0  0  0  0  0  0  0  0  0  0  0
   -6.1509  -19.3897   18.9379 H   0  0  0  0  0  0  0  0  0  0  0  0
   -4.6679  -18.2845   17.6209 H   0  0  0  0  0  0  0  0  0  0  0  0
   -6.6749  -19.0620   15.3644 H   0  0  0  0  0  0  0  0  0  0  0  0
   -4.9029  -18.7651   15.1662 H   0  0  0  0  0  0  0  0  0  0  0  0
   -5.1210  -16.4652   16.0499 H   0  0  0  0  0  0  0  0  0  0  0  0
   -9.4530  -14.2299   13.2354 H   0  0  0  0  0  0  0  0  0  0  0  0
  -10.1297  -14.7896   14.3076 H   0  0  0  0  0  0  0  0  0  0  0  0
  1  2  1  0
  2  3  1  0
  3  4  1  0
  4  5  1  0
  5  6  1  0
  6  7  1  0
  7  8  1  0
  8  9  1  0
  9 10  1  0
 10 11  1  0
 11 12  1  0
  5 13  1  0
 13  1  1  0
 12  6  1  0
 12 10  1  0
  1 14  1  0
  1 15  1  0
  2 16  1  0
  2 17  1  0
  3 18  1  0
  4 19  1  0
  4 20  1  0
  5 21  1  0
  6 22  1  0
  7 23  1  0
  7 24  1  0
  8 25  1  0
  8 26  1  0
  9 27  1  0
  9 28  1  0
 10 29  1  0
 11 30  1  0
 11 31  1  0
 12 32  1  0
 13 33  1  0
 13 34  1  0
M  END
>  <Energy>  (241) 
409.2032339598174

>  <compound_id>  (241) 
61028

>  <target_id>  (241) 
1

>  <reference_id>  (241) 
46

>  <inspiration_ids>  (241) 
[46, 99]

>  <energy_score>  (241) 
341.31632551555765

>  <distance_score>  (241) 
15.043013497938919

>  <path>  (241) 
/opt/xchem-fragalysis-2/maxwin/BulkDock/SCRATCH/511022/C61028-P46/C61028-P46.minimised.mol

>  <scratch_subdir>  (241) 
/opt/xchem-fragalysis-2/maxwin/BulkDock/SCRATCH/511022/C61028-P46

>  <fragmenstein_runtime>  (241) 
11.432484149932861

>  <fragmenstein_outcome>  (241) 
too moved

>  <fragmenstein_mode>  (241) 
expansion

>  <fragmenstein_error>  (241) 


$$$$
C61028-P99
     RDKit          3D

 34 36  0  0  0  0  0  0  0  0999 V2000
   -8.1706   -6.8395   12.0741 C   0  0  0  0  0  0  0  0  0  0  0  0
   -7.7147   -6.4748   10.6647 C   0  0  0  0  0  0  0  0  0  0  0  0
   -8.7054   -6.7879    9.6453 N   0  0  0  0  0  0  0  0  0  0  0  0
   -9.0675   -8.1988    9.7468 C   0  0  0  0  0  0  0  0  0  0  0  0
   -9.8781   -8.4708   11.0370 C   0  0  0  0  0  0  0  0  0  0  0  0
   -9.9542   -9.9763   11.5594 C   0  0  0  0  0  0  0  0  0  0  0  0
   -9.2991  -10.2695   12.9311 C   0  0  0  0  0  0  0  0  0  0  0  0
   -8.9943  -11.7510   13.2403 C   0  0  0  0  0  0  0  0  0  0  0  0
   -9.5929  -12.8179   12.3414 C   0  0  0  0  0  0  0  0  0  0  0  0
   -9.4172  -12.4732   10.9186 C   0  0  0  0  0  0  0  0  0  0  0  0
  -10.6079  -12.1488   10.0678 C   0  0  0  0  0  0  0  0  0  0  0  0
   -9.6750  -11.0427   10.4940 C   0  0  0  0  0  0  0  0  0  0  0  0
   -9.5972   -7.3831   12.1085 C   0  0  0  0  0  0  0  0  0  0  0  0
   -7.4886   -7.5819   12.5000 H   0  0  0  0  0  0  0  0  0  0  0  0
   -8.1091   -5.9602   12.7258 H   0  0  0  0  0  0  0  0  0  0  0  0
   -6.7607   -6.9659   10.4464 H   0  0  0  0  0  0  0  0  0  0  0  0
   -7.5209   -5.4124   10.6233 H   0  0  0  0  0  0  0  0  0  0  0  0
   -8.3290   -6.5819    8.7241 H   0  0  0  0  0  0  0  0  0  0  0  0
   -9.6871   -8.4640    8.8817 H   0  0  0  0  0  0  0  0  0  0  0  0
   -8.1627   -8.8033    9.6743 H   0  0  0  0  0  0  0  0  0  0  0  0
  -10.9184   -8.2629   10.7312 H   0  0  0  0  0  0  0  0  0  0  0  0
  -11.0065  -10.0355   11.7606 H   0  0  0  0  0  0  0  0  0  0  0  0
   -8.3958   -9.6780   13.0557 H   0  0  0  0  0  0  0  0  0  0  0  0
   -9.8945   -9.8113   13.7254 H   0  0  0  0  0  0  0  0  0  0  0  0
   -9.1985  -11.9686   14.2898 H   0  0  0  0  0  0  0  0  0  0  0  0
   -7.9214  -11.8713   13.1005 H   0  0  0  0  0  0  0  0  0  0  0  0
   -9.1827  -13.7740   12.6328 H   0  0  0  0  0  0  0  0  0  0  0  0
  -10.6374  -13.0295   12.4187 H   0  0  0  0  0  0  0  0  0  0  0  0
   -8.5835  -12.9733   10.4453 H   0  0  0  0  0  0  0  0  0  0  0  0
  -10.5697  -12.4592    9.0260 H   0  0  0  0  0  0  0  0  0  0  0  0
  -11.6157  -12.1458   10.4336 H   0  0  0  0  0  0  0  0  0  0  0  0
   -9.0625  -10.6770    9.6789 H   0  0  0  0  0  0  0  0  0  0  0  0
   -9.8602   -7.7137   13.1165 H   0  0  0  0  0  0  0  0  0  0  0  0
  -10.2734   -6.5377   11.9123 H   0  0  0  0  0  0  0  0  0  0  0  0
  1  2  1  0
  2  3  1  0
  3  4  1  0
  4  5  1  0
  5  6  1  0
  6  7  1  0
  7  8  1  0
  8  9  1  0
  9 10  1  0
 10 11  1  0
 11 12  1  0
  5 13  1  0
 13  1  1  0
 12  6  1  0
 12 10  1  0
  1 14  1  0
  1 15  1  0
  2 16  1  0
  2 17  1  0
  3 18  1  0
  4 19  1  0
  4 20  1  0
  5 21  1  0
  6 22  1  0
  7 23  1  0
  7 24  1  0
  8 25  1  0
  8 26  1  0
  9 27  1  0
  9 28  1  0
 10 29  1  0
 11 30  1  0
 11 31  1  0
 12 32  1  0
 13 33  1  0
 13 34  1  0
M  END
>  <Energy>  (242) 
61.226229170901597

>  <compound_id>  (242) 
61028

>  <target_id>  (242) 
1

>  <reference_id>  (242) 
99

>  <inspiration_ids>  (242) 
[46, 99]

>  <energy_score>  (242) 
-6.6606792733592215

>  <distance_score>  (242) 
18.13170424858165

>  <path>  (242) 
/opt/xchem-fragalysis-2/maxwin/BulkDock/SCRATCH/511022/C61028-P99/C61028-P99.minimised.mol

>  <scratch_subdir>  (242) 
/opt/xchem-fragalysis-2/maxwin/BulkDock/SCRATCH/511022/C61028-P99

>  <fragmenstein_runtime>  (242) 
13.823071002960205

>  <fragmenstein_outcome>  (242) 
too moved

>  <fragmenstein_mode>  (242) 
expansion

>  <fragmenstein_error>  (242) 


$$$$
C35601-P46
     RDKit          3D

 52 53  0  0  0  0  0  0  0  0999 V2000
  -12.6359  -24.7733   27.1119 C   0  0  0  0  0  0  0  0  0  0  0  0
  -11.8686  -24.1074   25.9678 C   0  0  0  0  0  0  0  0  0  0  0  0
  -12.2991  -24.5900   24.5672 C   0  0  0  0  0  0  0  0  0  0  0  0
  -13.5667  -23.8730   24.1132 C   0  0  0  0  0  0  0  0  0  0  0  0
  -11.1983  -24.6034   23.4384 C   0  0  0  0  0  0  0  0  0  0  0  0
  -10.8834  -25.6836   23.0217 O   0  0  0  0  0  0  0  0  0  0  0  0
  -10.7593  -23.2887   23.0607 N   0  0  0  0  0  0  0  0  0  0  0  0
   -9.8593  -22.8417   21.9808 C   0  0  0  0  0  0  0  0  0  0  0  0
   -8.3249  -22.9987   22.2598 C   0  0  0  0  0  0  0  0  0  0  0  0
   -7.9164  -24.0568   22.6635 O   0  0  0  0  0  0  0  0  0  0  0  0
   -7.6354  -21.7402   22.0575 N   0  0  0  0  0  0  0  0  0  0  0  0
   -6.2411  -21.3337   22.3892 C   0  0  0  0  0  0  0  0  0  0  0  0
   -6.0678  -19.8110   22.4072 C   0  0  0  0  0  0  0  0  0  0  0  0
   -6.4818  -19.2489   21.0516 C   0  0  0  0  0  0  0  0  0  0  0  0
   -6.3023  -20.3694   20.0416 C   0  0  0  0  0  0  0  0  0  0  0  0
   -6.6323  -20.1410   18.5287 C   0  0  0  0  0  0  0  0  0  0  0  0
   -6.3462  -18.9093   17.7723 N   0  0  0  0  0  0  0  0  0  0  0  0
   -6.9397  -18.3829   16.5409 C   0  0  0  0  0  0  0  0  0  0  0  0
   -7.8594  -18.7845   15.8876 O   0  0  0  0  0  0  0  0  0  0  0  0
   -6.2726  -17.1174   15.9532 C   0  0  0  0  0  0  0  0  0  0  0  0
   -5.0009  -16.5044   16.1789 C   0  0  0  0  0  0  0  0  0  0  0  0
   -4.9410  -15.3907   15.3632 C   0  0  0  0  0  0  0  0  0  0  0  0
   -6.1133  -15.3743   14.6790 N   0  0  0  0  0  0  0  0  0  0  0  0
   -6.9202  -16.3915   15.0023 N   0  0  0  0  0  0  0  0  0  0  0  0
   -7.0724  -21.6612   20.6025 C   0  0  0  0  0  0  0  0  0  0  0  0
  -13.7119  -24.6384   26.9982 H   0  0  0  0  0  0  0  0  0  0  0  0
  -12.3344  -24.3415   28.0713 H   0  0  0  0  0  0  0  0  0  0  0  0
  -12.4273  -25.8474   27.1420 H   0  0  0  0  0  0  0  0  0  0  0  0
  -10.8066  -24.2872   26.1262 H   0  0  0  0  0  0  0  0  0  0  0  0
  -12.0023  -23.0273   26.0469 H   0  0  0  0  0  0  0  0  0  0  0  0
  -12.5728  -25.6508   24.6728 H   0  0  0  0  0  0  0  0  0  0  0  0
  -14.3989  -24.0599   24.7974 H   0  0  0  0  0  0  0  0  0  0  0  0
  -13.4202  -22.7924   24.0328 H   0  0  0  0  0  0  0  0  0  0  0  0
  -13.8706  -24.2281   23.1220 H   0  0  0  0  0  0  0  0  0  0  0  0
  -11.3012  -22.6017   23.5694 H   0  0  0  0  0  0  0  0  0  0  0  0
  -10.1012  -21.7935   21.7807 H   0  0  0  0  0  0  0  0  0  0  0  0
  -10.0882  -23.4364   21.0905 H   0  0  0  0  0  0  0  0  0  0  0  0
   -6.1396  -21.6474   23.4385 H   0  0  0  0  0  0  0  0  0  0  0  0
   -5.4122  -21.9155   21.9473 H   0  0  0  0  0  0  0  0  0  0  0  0
   -5.0174  -19.5741   22.6121 H   0  0  0  0  0  0  0  0  0  0  0  0
   -6.6631  -19.3432   23.1983 H   0  0  0  0  0  0  0  0  0  0  0  0
   -5.8902  -18.3654   20.7930 H   0  0  0  0  0  0  0  0  0  0  0  0
   -7.5237  -18.9453   21.1088 H   0  0  0  0  0  0  0  0  0  0  0  0
   -5.2275  -20.6101   20.0469 H   0  0  0  0  0  0  0  0  0  0  0  0
   -6.1044  -20.9255   17.9694 H   0  0  0  0  0  0  0  0  0  0  0  0
   -7.6885  -20.3624   18.3467 H   0  0  0  0  0  0  0  0  0  0  0  0
   -5.5277  -18.3634   18.0041 H   0  0  0  0  0  0  0  0  0  0  0  0
   -4.2230  -16.8352   16.8513 H   0  0  0  0  0  0  0  0  0  0  0  0
   -4.1785  -14.6409   15.2088 H   0  0  0  0  0  0  0  0  0  0  0  0
   -6.4308  -14.7127   13.9771 H   0  0  0  0  0  0  0  0  0  0  0  0
   -7.9918  -21.7540   20.0051 H   0  0  0  0  0  0  0  0  0  0  0  0
   -6.5265  -22.5877   20.3522 H   0  0  0  0  0  0  0  0  0  0  0  0
  1  2  1  0
  2  3  1  0
  3  4  1  0
  3  5  1  0
  5  6  2  0
  5  7  1  0
  7  8  1  0
  8  9  1  0
  9 10  2  0
  9 11  1  0
 11 12  1  0
 12 13  1  0
 13 14  1  0
 14 15  1  0
 15 16  1  0
 16 17  1  0
 17 18  1  0
 18 19  2  0
 18 20  1  0
 20 21  1  0
 21 22  2  0
 22 23  1  0
 23 24  1  0
 15 25  1  0
 25 11  1  0
 24 20  2  0
  1 26  1  0
  1 27  1  0
  1 28  1  0
  2 29  1  0
  2 30  1  0
  3 31  1  0
  4 32  1  0
  4 33  1  0
  4 34  1  0
  7 35  1  0
  8 36  1  0
  8 37  1  0
 12 38  1  0
 12 39  1  0
 13 40  1  0
 13 41  1  0
 14 42  1  0
 14 43  1  0
 15 44  1  0
 16 45  1  0
 16 46  1  0
 17 47  1  0
 21 48  1  0
 22 49  1  0
 23 50  1  0
 25 51  1  0
 25 52  1  0
M  END
>  <Energy>  (243) 
153.62981486770082

>  <compound_id>  (243) 
35601

>  <target_id>  (243) 
1

>  <reference_id>  (243) 
46

>  <inspiration_ids>  (243) 
[46, 99]

>  <energy_score>  (243) 
58.192358636974234

>  <distance_score>  (243) 
12.100870191261441

>  <path>  (243) 
/opt/xchem-fragalysis-2/maxwin/BulkDock/SCRATCH/511022/C35601-P46/C35601-P46.minimised.mol

>  <scratch_subdir>  (243) 
/opt/xchem-fragalysis-2/maxwin/BulkDock/SCRATCH/511022/C35601-P46

>  <fragmenstein_runtime>  (243) 
42.0022234916687

>  <fragmenstein_outcome>  (243) 
too moved

>  <fragmenstein_mode>  (243) 
expansion

>  <fragmenstein_error>  (243) 


$$$$
C35601-P99
     RDKit          3D

 52 53  0  0  0  0  0  0  0  0999 V2000
  -16.1074  -20.8867   33.5549 C   0  0  0  0  0  0  0  0  0  0  0  0
  -16.4976  -21.8097   32.4147 C   0  0  0  0  0  0  0  0  0  0  0  0
  -15.2599  -22.4999   31.7679 C   0  0  0  0  0  0  0  0  0  0  0  0
  -15.8350  -23.7681   31.1295 C   0  0  0  0  0  0  0  0  0  0  0  0
  -14.5759  -21.5954   30.6098 C   0  0  0  0  0  0  0  0  0  0  0  0
  -15.2352  -20.5612   30.4394 O   0  0  0  0  0  0  0  0  0  0  0  0
  -13.1979  -22.2045   29.7314 N   0  0  0  0  0  0  0  0  0  0  0  0
  -12.3468  -21.5853   28.1646 C   0  0  0  0  0  0  0  0  0  0  0  0
  -10.6982  -22.1080   27.3645 C   0  0  0  0  0  0  0  0  0  0  0  0
  -10.5037  -23.2970   27.4509 O   0  0  0  0  0  0  0  0  0  0  0  0
   -9.6330  -20.7888   26.8146 N   0  0  0  0  0  0  0  0  0  0  0  0
   -7.5527  -20.9245   26.4031 C   0  0  0  0  0  0  0  0  0  0  0  0
   -7.0854  -18.8199   26.4328 C   0  0  0  0  0  0  0  0  0  0  0  0
   -8.4928  -17.4557   25.5605 C   0  0  0  0  0  0  0  0  0  0  0  0
   -9.8213  -18.0854   24.0787 C   0  0  0  0  0  0  0  0  0  0  0  0
  -10.9207  -16.2168   23.2084 C   0  0  0  0  0  0  0  0  0  0  0  0
  -10.6852  -14.2569   22.1355 N   0  0  0  0  0  0  0  0  0  0  0  0
   -9.3364  -13.6390   20.5588 C   0  0  0  0  0  0  0  0  0  0  0  0
   -8.5515  -14.5170   20.3575 O   0  0  0  0  0  0  0  0  0  0  0  0
   -9.0105  -12.3087   19.1532 C   0  0  0  0  0  0  0  0  0  0  0  0
   -8.1491  -13.0980   18.2393 C   0  0  0  0  0  0  0  0  0  0  0  0
   -7.4297  -12.7446   17.1038 C   0  0  0  0  0  0  0  0  0  0  0  0
   -7.0662  -11.6532   17.6737 N   0  0  0  0  0  0  0  0  0  0  0  0
   -7.7241  -11.4732   18.8515 N   0  0  0  0  0  0  0  0  0  0  0  0
   -9.9870  -20.4147   24.5601 C   0  0  0  0  0  0  0  0  0  0  0  0
  -15.6572  -21.4496   34.3791 H   0  0  0  0  0  0  0  0  0  0  0  0
  -16.9918  -20.3742   33.9463 H   0  0  0  0  0  0  0  0  0  0  0  0
  -15.3929  -20.1298   33.2306 H   0  0  0  0  0  0  0  0  0  0  0  0
  -17.1711  -22.5664   32.8389 H   0  0  0  0  0  0  0  0  0  0  0  0
  -17.0904  -21.2588   31.6756 H   0  0  0  0  0  0  0  0  0  0  0  0
  -14.6778  -22.7318   32.6406 H   0  0  0  0  0  0  0  0  0  0  0  0
  -15.1320  -24.2703   30.4816 H   0  0  0  0  0  0  0  0  0  0  0  0
  -16.1488  -24.4831   31.8978 H   0  0  0  0  0  0  0  0  0  0  0  0
  -16.7117  -23.5380   30.5131 H   0  0  0  0  0  0  0  0  0  0  0  0
  -12.9490  -23.1163   30.0748 H   0  0  0  0  0  0  0  0  0  0  0  0
  -12.4115  -20.5476   28.4434 H   0  0  0  0  0  0  0  0  0  0  0  0
  -11.5558  -21.6163   28.9710 H   0  0  0  0  0  0  0  0  0  0  0  0
   -7.4935  -21.2374   27.4458 H   0  0  0  0  0  0  0  0  0  0  0  0
   -6.8316  -21.8019   26.3539 H   0  0  0  0  0  0  0  0  0  0  0  0
   -6.1720  -18.7209   25.8218 H   0  0  0  0  0  0  0  0  0  0  0  0
   -7.0361  -18.2824   27.3850 H   0  0  0  0  0  0  0  0  0  0  0  0
   -7.8590  -16.6788   25.1275 H   0  0  0  0  0  0  0  0  0  0  0  0
   -9.1080  -17.0995   26.3932 H   0  0  0  0  0  0  0  0  0  0  0  0
   -8.9844  -18.4793   23.4167 H   0  0  0  0  0  0  0  0  0  0  0  0
  -11.7887  -16.4579   22.5650 H   0  0  0  0  0  0  0  0  0  0  0  0
  -11.8032  -16.0733   23.9270 H   0  0  0  0  0  0  0  0  0  0  0  0
  -11.2699  -13.4999   22.3499 H   0  0  0  0  0  0  0  0  0  0  0  0
   -8.1004  -14.0988   18.5404 H   0  0  0  0  0  0  0  0  0  0  0  0
   -6.8985  -13.2494   16.3101 H   0  0  0  0  0  0  0  0  0  0  0  0
   -6.3792  -10.9916   17.3368 H   0  0  0  0  0  0  0  0  0  0  0  0
  -11.1565  -20.6086   24.6228 H   0  0  0  0  0  0  0  0  0  0  0  0
  -10.1522  -21.0917   23.6326 H   0  0  0  0  0  0  0  0  0  0  0  0
  1  2  1  0
  2  3  1  0
  3  4  1  0
  3  5  1  0
  5  6  2  0
  5  7  1  0
  7  8  1  0
  8  9  1  0
  9 10  2  0
  9 11  1  0
 11 12  1  0
 12 13  1  0
 13 14  1  0
 14 15  1  0
 15 16  1  0
 16 17  1  0
 17 18  1  0
 18 19  2  0
 18 20  1  0
 20 21  1  0
 21 22  2  0
 22 23  1  0
 23 24  1  0
 15 25  1  0
 25 11  1  0
 24 20  2  0
  1 26  1  0
  1 27  1  0
  1 28  1  0
  2 29  1  0
  2 30  1  0
  3 31  1  0
  4 32  1  0
  4 33  1  0
  4 34  1  0
  7 35  1  0
  8 36  1  0
  8 37  1  0
 12 38  1  0
 12 39  1  0
 13 40  1  0
 13 41  1  0
 14 42  1  0
 14 43  1  0
 15 44  1  0
 16 45  1  0
 16 46  1  0
 17 47  1  0
 21 48  1  0
 22 49  1  0
 23 50  1  0
 25 51  1  0
 25 52  1  0
M  END
>  <Energy>  (244) 
2233.1703058464395

>  <compound_id>  (244) 
35601

>  <target_id>  (244) 
1

>  <reference_id>  (244) 
99

>  <inspiration_ids>  (244) 
[46, 99]

>  <energy_score>  (244) 
2137.7328496157375

>  <distance_score>  (244) 
9.547047255507325

>  <path>  (244) 
/opt/xchem-fragalysis-2/maxwin/BulkDock/SCRATCH/511022/C35601-P99/C35601-P99.minimised.mol

>  <scratch_subdir>  (244) 
/opt/xchem-fragalysis-2/maxwin/BulkDock/SCRATCH/511022/C35601-P99

>  <fragmenstein_runtime>  (244) 
45.648682594299316

>  <fragmenstein_outcome>  (244) 
too moved

>  <fragmenstein_mode>  (244) 
expansion

>  <fragmenstein_error>  (244) 


$$$$
C35602-P46
     RDKit          3D

 52 53  0  0  0  0  0  0  0  0999 V2000
  -13.6357  -24.7983   24.8410 C   0  0  0  0  0  0  0  0  0  0  0  0
  -13.2046  -23.7371   23.8262 C   0  0  0  0  0  0  0  0  0  0  0  0
  -14.3189  -23.2437   22.8603 C   0  0  0  0  0  0  0  0  0  0  0  0
  -15.4464  -22.5762   23.6620 C   0  0  0  0  0  0  0  0  0  0  0  0
  -13.7634  -22.2554   21.7608 C   0  0  0  0  0  0  0  0  0  0  0  0
  -12.6572  -21.8116   21.8749 O   0  0  0  0  0  0  0  0  0  0  0  0
  -14.7958  -21.9738   20.7892 N   0  0  0  0  0  0  0  0  0  0  0  0
  -14.8518  -20.9855   19.6968 C   0  0  0  0  0  0  0  0  0  0  0  0
  -15.7334  -19.8221   20.2336 C   0  0  0  0  0  0  0  0  0  0  0  0
  -16.1995  -19.9876   21.3360 O   0  0  0  0  0  0  0  0  0  0  0  0
  -15.7806  -18.6690   19.3564 N   0  0  0  0  0  0  0  0  0  0  0  0
  -16.3198  -17.2954   19.5844 C   0  0  0  0  0  0  0  0  0  0  0  0
  -17.6193  -17.0703   20.3856 C   0  0  0  0  0  0  0  0  0  0  0  0
  -18.4993  -18.2948   20.4709 C   0  0  0  0  0  0  0  0  0  0  0  0
  -18.3035  -19.1573   19.2309 C   0  0  0  0  0  0  0  0  0  0  0  0
  -17.0187  -18.7569   18.4199 C   0  0  0  0  0  0  0  0  0  0  0  0
  -17.4416  -17.7747   17.1811 C   0  0  0  0  0  0  0  0  0  0  0  0
  -16.5628  -16.9250   16.3619 N   0  0  0  0  0  0  0  0  0  0  0  0
  -16.7186  -15.5548   15.9119 C   0  0  0  0  0  0  0  0  0  0  0  0
  -17.5633  -14.7463   16.1599 O   0  0  0  0  0  0  0  0  0  0  0  0
  -15.6270  -15.0637   14.9641 C   0  0  0  0  0  0  0  0  0  0  0  0
  -15.5407  -13.7318   14.4145 C   0  0  0  0  0  0  0  0  0  0  0  0
  -14.4335  -13.7061   13.6029 C   0  0  0  0  0  0  0  0  0  0  0  0
  -13.9135  -14.9595   13.6734 N   0  0  0  0  0  0  0  0  0  0  0  0
  -14.5782  -15.7963   14.5211 N   0  0  0  0  0  0  0  0  0  0  0  0
  -12.7661  -25.1403   25.4119 H   0  0  0  0  0  0  0  0  0  0  0  0
  -14.0651  -25.6656   24.3297 H   0  0  0  0  0  0  0  0  0  0  0  0
  -14.3697  -24.4239   25.5528 H   0  0  0  0  0  0  0  0  0  0  0  0
  -12.7667  -22.8859   24.3580 H   0  0  0  0  0  0  0  0  0  0  0  0
  -12.3914  -24.1604   23.2224 H   0  0  0  0  0  0  0  0  0  0  0  0
  -14.7204  -24.1178   22.3314 H   0  0  0  0  0  0  0  0  0  0  0  0
  -15.8487  -23.2385   24.4314 H   0  0  0  0  0  0  0  0  0  0  0  0
  -15.1059  -21.6452   24.1216 H   0  0  0  0  0  0  0  0  0  0  0  0
  -16.2915  -22.3130   23.0181 H   0  0  0  0  0  0  0  0  0  0  0  0
  -15.6373  -22.4728   21.0476 H   0  0  0  0  0  0  0  0  0  0  0  0
  -15.3269  -21.4521   18.8321 H   0  0  0  0  0  0  0  0  0  0  0  0
  -13.8439  -20.6286   19.4757 H   0  0  0  0  0  0  0  0  0  0  0  0
  -15.5524  -16.9197   20.2759 H   0  0  0  0  0  0  0  0  0  0  0  0
  -16.1703  -16.5898   18.7613 H   0  0  0  0  0  0  0  0  0  0  0  0
  -17.4191  -16.6728   21.3844 H   0  0  0  0  0  0  0  0  0  0  0  0
  -18.1768  -16.2696   19.8811 H   0  0  0  0  0  0  0  0  0  0  0  0
  -19.5515  -18.0023   20.5677 H   0  0  0  0  0  0  0  0  0  0  0  0
  -18.2784  -18.8656   21.3769 H   0  0  0  0  0  0  0  0  0  0  0  0
  -19.1856  -19.0795   18.5832 H   0  0  0  0  0  0  0  0  0  0  0  0
  -18.2578  -20.2128   19.5271 H   0  0  0  0  0  0  0  0  0  0  0  0
  -16.7674  -19.6737   17.8613 H   0  0  0  0  0  0  0  0  0  0  0  0
  -18.2111  -17.0894   17.5604 H   0  0  0  0  0  0  0  0  0  0  0  0
  -17.9704  -18.4067   16.4550 H   0  0  0  0  0  0  0  0  0  0  0  0
  -15.7703  -17.3429   15.8818 H   0  0  0  0  0  0  0  0  0  0  0  0
  -16.2228  -12.9154   14.6135 H   0  0  0  0  0  0  0  0  0  0  0  0
  -13.9870  -12.9275   13.0015 H   0  0  0  0  0  0  0  0  0  0  0  0
  -13.0926  -15.3152   13.1930 H   0  0  0  0  0  0  0  0  0  0  0  0
  1  2  1  0
  2  3  1  0
  3  4  1  0
  3  5  1  0
  5  6  2  0
  5  7  1  0
  7  8  1  0
  8  9  1  0
  9 10  2  0
  9 11  1  0
 11 12  1  0
 12 13  1  0
 13 14  1  0
 14 15  1  0
 15 16  1  0
 16 17  1  0
 17 18  1  0
 18 19  1  0
 19 20  2  0
 19 21  1  0
 21 22  1  0
 22 23  2  0
 23 24  1  0
 24 25  1  0
 16 11  1  0
 25 21  2  0
  1 26  1  0
  1 27  1  0
  1 28  1  0
  2 29  1  0
  2 30  1  0
  3 31  1  0
  4 32  1  0
  4 33  1  0
  4 34  1  0
  7 35  1  0
  8 36  1  0
  8 37  1  0
 12 38  1  0
 12 39  1  0
 13 40  1  0
 13 41  1  0
 14 42  1  0
 14 43  1  0
 15 44  1  0
 15 45  1  0
 16 46  1  0
 17 47  1  0
 17 48  1  0
 18 49  1  0
 22 50  1  0
 23 51  1  0
 24 52  1  0
M  END
>  <Energy>  (245) 
159.95823183875856

>  <compound_id>  (245) 
35602

>  <target_id>  (245) 
1

>  <reference_id>  (245) 
46

>  <inspiration_ids>  (245) 
[46, 99]

>  <energy_score>  (245) 
56.08959873482013

>  <distance_score>  (245) 
13.220484019753158

>  <path>  (245) 
/opt/xchem-fragalysis-2/maxwin/BulkDock/SCRATCH/511022/C35602-P46/C35602-P46.minimised.mol

>  <scratch_subdir>  (245) 
/opt/xchem-fragalysis-2/maxwin/BulkDock/SCRATCH/511022/C35602-P46

>  <fragmenstein_runtime>  (245) 
35.124985456466675

>  <fragmenstein_outcome>  (245) 
too moved

>  <fragmenstein_mode>  (245) 
expansion

>  <fragmenstein_error>  (245) 


$$$$
C35602-P99
     RDKit          3D

 52 53  0  0  0  0  0  0  0  0999 V2000
  -13.5141  -15.7303   33.8357 C   0  0  0  0  0  0  0  0  0  0  0  0
  -13.5939  -15.1898   32.4084 C   0  0  0  0  0  0  0  0  0  0  0  0
  -12.8285  -13.9031   32.1465 C   0  0  0  0  0  0  0  0  0  0  0  0
  -11.3709  -14.0246   32.5834 C   0  0  0  0  0  0  0  0  0  0  0  0
  -12.9644  -13.3663   30.6815 C   0  0  0  0  0  0  0  0  0  0  0  0
  -13.6652  -12.4101   30.5011 O   0  0  0  0  0  0  0  0  0  0  0  0
  -12.1148  -14.0888   29.7783 N   0  0  0  0  0  0  0  0  0  0  0  0
  -11.7537  -13.8282   28.3704 C   0  0  0  0  0  0  0  0  0  0  0  0
  -10.5204  -12.8833   28.5447 C   0  0  0  0  0  0  0  0  0  0  0  0
  -10.4488  -12.3876   29.6474 O   0  0  0  0  0  0  0  0  0  0  0  0
   -9.6904  -12.6843   27.3691 N   0  0  0  0  0  0  0  0  0  0  0  0
   -8.4363  -11.8980   27.1920 C   0  0  0  0  0  0  0  0  0  0  0  0
   -8.2654  -10.9110   28.3530 C   0  0  0  0  0  0  0  0  0  0  0  0
   -9.4857  -10.0095   28.5013 C   0  0  0  0  0  0  0  0  0  0  0  0
  -10.5992  -10.3062   27.4648 C   0  0  0  0  0  0  0  0  0  0  0  0
  -10.2846  -11.4948   26.4534 C   0  0  0  0  0  0  0  0  0  0  0  0
  -10.1970  -11.4338   24.5454 C   0  0  0  0  0  0  0  0  0  0  0  0
   -9.3215  -10.4633   23.1723 N   0  0  0  0  0  0  0  0  0  0  0  0
   -9.8115   -8.9563   22.1896 C   0  0  0  0  0  0  0  0  0  0  0  0
  -10.8255   -8.4932   22.5915 O   0  0  0  0  0  0  0  0  0  0  0  0
   -9.0409   -8.0608   20.3843 C   0  0  0  0  0  0  0  0  0  0  0  0
   -8.0888   -6.7565   20.6821 C   0  0  0  0  0  0  0  0  0  0  0  0
   -8.2208   -5.8094   19.7003 C   0  0  0  0  0  0  0  0  0  0  0  0
   -9.2544   -6.2894   19.0061 N   0  0  0  0  0  0  0  0  0  0  0  0
   -9.7157   -7.5036   19.3510 N   0  0  0  0  0  0  0  0  0  0  0  0
  -12.5030  -16.0487   34.0994 H   0  0  0  0  0  0  0  0  0  0  0  0
  -13.8124  -14.9545   34.5493 H   0  0  0  0  0  0  0  0  0  0  0  0
  -14.1817  -16.5803   33.9850 H   0  0  0  0  0  0  0  0  0  0  0  0
  -13.2468  -15.9358   31.6979 H   0  0  0  0  0  0  0  0  0  0  0  0
  -14.6385  -14.9507   32.2088 H   0  0  0  0  0  0  0  0  0  0  0  0
  -13.2706  -13.1177   32.7774 H   0  0  0  0  0  0  0  0  0  0  0  0
  -11.3042  -14.0635   33.6725 H   0  0  0  0  0  0  0  0  0  0  0  0
  -10.8907  -14.9177   32.1883 H   0  0  0  0  0  0  0  0  0  0  0  0
  -10.7882  -13.1570   32.2569 H   0  0  0  0  0  0  0  0  0  0  0  0
  -11.7358  -14.8924   30.2560 H   0  0  0  0  0  0  0  0  0  0  0  0
  -12.5675  -13.2898   27.8812 H   0  0  0  0  0  0  0  0  0  0  0  0
  -11.4888  -14.7513   27.8599 H   0  0  0  0  0  0  0  0  0  0  0  0
   -8.1613  -11.4406   26.2457 H   0  0  0  0  0  0  0  0  0  0  0  0
   -7.6455  -12.6461   27.3564 H   0  0  0  0  0  0  0  0  0  0  0  0
   -8.0870  -11.4497   29.2917 H   0  0  0  0  0  0  0  0  0  0  0  0
   -7.3672  -10.3048   28.1845 H   0  0  0  0  0  0  0  0  0  0  0  0
   -9.1720   -8.9609   28.4096 H   0  0  0  0  0  0  0  0  0  0  0  0
   -9.8882  -10.0637   29.5196 H   0  0  0  0  0  0  0  0  0  0  0  0
  -10.8553   -9.3777   26.9618 H   0  0  0  0  0  0  0  0  0  0  0  0
  -11.5005  -10.5578   28.0419 H   0  0  0  0  0  0  0  0  0  0  0  0
  -11.3101  -11.9026   26.3806 H   0  0  0  0  0  0  0  0  0  0  0  0
  -11.1033  -10.8583   24.4176 H   0  0  0  0  0  0  0  0  0  0  0  0
  -10.7393  -12.2392   24.0977 H   0  0  0  0  0  0  0  0  0  0  0  0
   -8.4154  -10.7559   22.8410 H   0  0  0  0  0  0  0  0  0  0  0  0
   -7.5864   -6.6259   21.6285 H   0  0  0  0  0  0  0  0  0  0  0  0
   -7.8146   -4.8188   19.5668 H   0  0  0  0  0  0  0  0  0  0  0  0
   -9.8314   -5.7801   18.3437 H   0  0  0  0  0  0  0  0  0  0  0  0
  1  2  1  0
  2  3  1  0
  3  4  1  0
  3  5  1  0
  5  6  2  0
  5  7  1  0
  7  8  1  0
  8  9  1  0
  9 10  2  0
  9 11  1  0
 11 12  1  0
 12 13  1  0
 13 14  1  0
 14 15  1  0
 15 16  1  0
 16 17  1  0
 17 18  1  0
 18 19  1  0
 19 20  2  0
 19 21  1  0
 21 22  1  0
 22 23  2  0
 23 24  1  0
 24 25  1  0
 16 11  1  0
 25 21  2  0
  1 26  1  0
  1 27  1  0
  1 28  1  0
  2 29  1  0
  2 30  1  0
  3 31  1  0
  4 32  1  0
  4 33  1  0
  4 34  1  0
  7 35  1  0
  8 36  1  0
  8 37  1  0
 12 38  1  0
 12 39  1  0
 13 40  1  0
 13 41  1  0
 14 42  1  0
 14 43  1  0
 15 44  1  0
 15 45  1  0
 16 46  1  0
 17 47  1  0
 17 48  1  0
 18 49  1  0
 22 50  1  0
 23 51  1  0
 24 52  1  0
M  END
>  <Energy>  (246) 
558.51590698752204

>  <compound_id>  (246) 
35602

>  <target_id>  (246) 
1

>  <reference_id>  (246) 
99

>  <inspiration_ids>  (246) 
[46, 99]

>  <energy_score>  (246) 
454.6472738835831

>  <distance_score>  (246) 
11.653133788913324

>  <path>  (246) 
/opt/xchem-fragalysis-2/maxwin/BulkDock/SCRATCH/511022/C35602-P99/C35602-P99.minimised.mol

>  <scratch_subdir>  (246) 
/opt/xchem-fragalysis-2/maxwin/BulkDock/SCRATCH/511022/C35602-P99

>  <fragmenstein_runtime>  (246) 
35.923502922058105

>  <fragmenstein_outcome>  (246) 
too moved

>  <fragmenstein_mode>  (246) 
expansion

>  <fragmenstein_error>  (246) 


$$$$
C15312-P46
     RDKit          3D

 51 52  0  0  0  0  0  0  0  0999 V2000
  -12.2811   -0.8043    9.8496 C   0  0  0  0  0  0  0  0  0  0  0  0
  -11.3730   -1.1591   11.0385 C   0  0  0  0  0  0  0  0  0  0  0  0
  -10.0839   -2.0514   10.8530 C   0  0  0  0  0  0  0  0  0  0  0  0
   -9.5563   -1.6579    9.3420 C   0  0  0  0  0  0  0  0  0  0  0  0
   -9.9183   -3.9695   11.3359 C   0  0  0  0  0  0  0  0  0  0  0  0
   -9.8711   -4.7005   10.3890 O   0  0  0  0  0  0  0  0  0  0  0  0
  -10.0074   -4.4201   12.9860 N   0  0  0  0  0  0  0  0  0  0  0  0
   -8.6408   -4.5854   13.6513 C   0  0  0  0  0  0  0  0  0  0  0  0
   -8.5530   -5.9732   14.8439 C   0  0  0  0  0  0  0  0  0  0  0  0
   -9.4035   -7.6167   14.3359 C   0  0  0  0  0  0  0  0  0  0  0  0
   -9.4435   -9.3662   13.8504 C   0  0  0  0  0  0  0  0  0  0  0  0
   -8.1620   -9.7899   13.4984 C   0  0  0  0  0  0  0  0  0  0  0  0
  -10.0109  -10.3125   14.7398 N   0  0  0  0  0  0  0  0  0  0  0  0
   -9.7464  -11.8963   14.9229 C   0  0  0  0  0  0  0  0  0  0  0  0
   -9.0585  -12.6482   14.2834 O   0  0  0  0  0  0  0  0  0  0  0  0
  -10.8031  -12.2163   16.6198 C   0  0  0  0  0  0  0  0  0  0  0  0
   -9.9323  -12.5778   18.2635 C   0  0  0  0  0  0  0  0  0  0  0  0
   -8.5868  -12.7587   18.6989 C   0  0  0  0  0  0  0  0  0  0  0  0
   -8.6212  -13.7102   19.8312 C   0  0  0  0  0  0  0  0  0  0  0  0
   -9.8230  -14.2003   20.0463 N   0  0  0  0  0  0  0  0  0  0  0  0
  -10.4856  -13.2954   19.3387 N   0  0  0  0  0  0  0  0  0  0  0  0
  -10.6421   -6.6899   14.4755 C   0  0  0  0  0  0  0  0  0  0  0  0
  -10.1447   -5.6141   13.5259 C   0  0  0  0  0  0  0  0  0  0  0  0
  -12.5802   -1.6383    9.2181 H   0  0  0  0  0  0  0  0  0  0  0  0
  -11.8084   -0.0516    9.2081 H   0  0  0  0  0  0  0  0  0  0  0  0
  -13.1990   -0.3405   10.2299 H   0  0  0  0  0  0  0  0  0  0  0  0
  -11.9180   -1.4455   11.9377 H   0  0  0  0  0  0  0  0  0  0  0  0
  -11.0309   -0.1478   11.2887 H   0  0  0  0  0  0  0  0  0  0  0  0
   -9.5121   -1.4564   11.5567 H   0  0  0  0  0  0  0  0  0  0  0  0
  -10.3474   -1.5580    8.5950 H   0  0  0  0  0  0  0  0  0  0  0  0
   -8.8691   -2.4043    8.9252 H   0  0  0  0  0  0  0  0  0  0  0  0
   -9.0532   -0.6833    9.3820 H   0  0  0  0  0  0  0  0  0  0  0  0
   -7.9753   -4.9421   12.8858 H   0  0  0  0  0  0  0  0  0  0  0  0
   -8.3604   -3.6378   14.1074 H   0  0  0  0  0  0  0  0  0  0  0  0
   -9.1835   -5.5267   15.6206 H   0  0  0  0  0  0  0  0  0  0  0  0
   -7.6786   -6.1467   15.4841 H   0  0  0  0  0  0  0  0  0  0  0  0
   -8.3021   -7.7391   14.3929 H   0  0  0  0  0  0  0  0  0  0  0  0
  -10.1169   -9.4567   13.0076 H   0  0  0  0  0  0  0  0  0  0  0  0
   -8.4798   -9.8642   12.4711 H   0  0  0  0  0  0  0  0  0  0  0  0
   -7.9089  -10.7543   13.8691 H   0  0  0  0  0  0  0  0  0  0  0  0
   -7.3494   -9.0997   13.5902 H   0  0  0  0  0  0  0  0  0  0  0  0
  -10.6404  -10.0427   15.3326 H   0  0  0  0  0  0  0  0  0  0  0  0
  -11.7637  -11.8232   16.3374 H   0  0  0  0  0  0  0  0  0  0  0  0
  -10.9552  -11.4026   17.3315 H   0  0  0  0  0  0  0  0  0  0  0  0
   -7.6900  -12.3475   18.2646 H   0  0  0  0  0  0  0  0  0  0  0  0
   -7.8483  -13.9670   20.5319 H   0  0  0  0  0  0  0  0  0  0  0  0
  -11.2243  -12.8859   19.8628 H   0  0  0  0  0  0  0  0  0  0  0  0
  -11.6355   -7.1897   14.3765 H   0  0  0  0  0  0  0  0  0  0  0  0
  -10.8850   -6.2857   15.4770 H   0  0  0  0  0  0  0  0  0  0  0  0
  -11.1899   -5.7051   13.4246 H   0  0  0  0  0  0  0  0  0  0  0  0
  -10.2881   -5.7094   12.4926 H   0  0  0  0  0  0  0  0  0  0  0  0
  1  2  1  0
  2  3  1  0
  3  4  1  0
  3  5  1  0
  5  6  2  0
  5  7  1  0
  7  8  1  0
  8  9  1  0
  9 10  1  0
 10 11  1  0
 11 12  1  0
 11 13  1  0
 13 14  1  0
 14 15  2  0
 14 16  1  0
 16 17  1  0
 17 18  2  0
 18 19  1  0
 19 20  2  0
 20 21  1  0
 10 22  1  0
 22 23  1  0
 23  7  1  0
 21 17  1  0
  1 24  1  0
  1 25  1  0
  1 26  1  0
  2 27  1  0
  2 28  1  0
  3 29  1  0
  4 30  1  0
  4 31  1  0
  4 32  1  0
  8 33  1  0
  8 34  1  0
  9 35  1  0
  9 36  1  0
 10 37  1  0
 11 38  1  0
 12 39  1  0
 12 40  1  0
 12 41  1  0
 13 42  1  0
 16 43  1  0
 16 44  1  0
 18 45  1  0
 19 46  1  0
 21 47  1  0
 22 48  1  0
 22 49  1  0
 23 50  1  0
 23 51  1  0
M  END
>  <Energy>  (247) 
755.55518255352592

>  <compound_id>  (247) 
15312

>  <target_id>  (247) 
1

>  <reference_id>  (247) 
46

>  <inspiration_ids>  (247) 
[46, 99]

>  <energy_score>  (247) 
690.749755002054

>  <distance_score>  (247) 
11.186208799572507

>  <path>  (247) 
/opt/xchem-fragalysis-2/maxwin/BulkDock/SCRATCH/511022/C15312-P46/C15312-P46.minimised.mol

>  <scratch_subdir>  (247) 
/opt/xchem-fragalysis-2/maxwin/BulkDock/SCRATCH/511022/C15312-P46

>  <fragmenstein_runtime>  (247) 
37.3051552772522

>  <fragmenstein_outcome>  (247) 
too moved

>  <fragmenstein_mode>  (247) 
expansion

>  <fragmenstein_error>  (247) 


$$$$
C15312-P99
     RDKit          3D

 51 52  0  0  0  0  0  0  0  0999 V2000
   -7.6253   -4.5767    7.6013 C   0  0  0  0  0  0  0  0  0  0  0  0
   -8.0321   -4.5211    9.0747 C   0  0  0  0  0  0  0  0  0  0  0  0
   -7.0835   -4.9018   10.7170 C   0  0  0  0  0  0  0  0  0  0  0  0
   -5.7644   -6.3465   10.5126 C   0  0  0  0  0  0  0  0  0  0  0  0
   -7.3264   -5.7519   12.5044 C   0  0  0  0  0  0  0  0  0  0  0  0
   -7.5770   -5.0418   13.4787 O   0  0  0  0  0  0  0  0  0  0  0  0
   -7.2384   -7.7272   12.3350 N   0  0  0  0  0  0  0  0  0  0  0  0
   -8.6059   -8.9493   11.8814 C   0  0  0  0  0  0  0  0  0  0  0  0
   -9.4506  -10.0452   12.8103 C   0  0  0  0  0  0  0  0  0  0  0  0
   -9.1755  -10.2828   14.2507 C   0  0  0  0  0  0  0  0  0  0  0  0
   -8.9485  -11.8386   15.0467 C   0  0  0  0  0  0  0  0  0  0  0  0
   -9.0368  -12.9442   13.9165 C   0  0  0  0  0  0  0  0  0  0  0  0
   -8.5576  -12.3864   16.8625 N   0  0  0  0  0  0  0  0  0  0  0  0
   -9.5463  -12.5728   18.1330 C   0  0  0  0  0  0  0  0  0  0  0  0
  -10.7146  -12.3071   18.2242 O   0  0  0  0  0  0  0  0  0  0  0  0
   -8.9553  -13.3851   19.5128 C   0  0  0  0  0  0  0  0  0  0  0  0
   -9.6228  -14.8067   20.1094 C   0  0  0  0  0  0  0  0  0  0  0  0
   -9.1446  -16.0805   20.4063 C   0  0  0  0  0  0  0  0  0  0  0  0
  -10.1166  -16.7134   21.2151 C   0  0  0  0  0  0  0  0  0  0  0  0
  -11.1520  -15.9171   21.4549 N   0  0  0  0  0  0  0  0  0  0  0  0
  -10.8225  -14.7825   20.8078 N   0  0  0  0  0  0  0  0  0  0  0  0
   -7.8300   -9.8541   14.0793 C   0  0  0  0  0  0  0  0  0  0  0  0
   -7.3574   -8.7014   13.4162 C   0  0  0  0  0  0  0  0  0  0  0  0
   -6.6222   -4.2039    7.3997 H   0  0  0  0  0  0  0  0  0  0  0  0
   -8.2830   -3.8979    7.0367 H   0  0  0  0  0  0  0  0  0  0  0  0
   -7.8083   -5.5276    7.1333 H   0  0  0  0  0  0  0  0  0  0  0  0
   -8.1659   -3.4145    9.0245 H   0  0  0  0  0  0  0  0  0  0  0  0
   -9.1033   -4.6999    9.1990 H   0  0  0  0  0  0  0  0  0  0  0  0
   -8.0884   -4.8283   11.2304 H   0  0  0  0  0  0  0  0  0  0  0  0
   -4.7657   -6.0125   10.2015 H   0  0  0  0  0  0  0  0  0  0  0  0
   -6.2080   -7.2221   10.0086 H   0  0  0  0  0  0  0  0  0  0  0  0
   -5.4459   -6.6859   11.4911 H   0  0  0  0  0  0  0  0  0  0  0  0
   -9.4045   -8.8067   11.1784 H   0  0  0  0  0  0  0  0  0  0  0  0
   -8.2236   -9.0257   10.8747 H   0  0  0  0  0  0  0  0  0  0  0  0
  -10.4146   -9.6002   12.8507 H   0  0  0  0  0  0  0  0  0  0  0  0
   -9.6358  -11.0220   12.3852 H   0  0  0  0  0  0  0  0  0  0  0  0
   -9.8007   -9.6001   14.7785 H   0  0  0  0  0  0  0  0  0  0  0  0
   -8.0605  -11.4598   15.2623 H   0  0  0  0  0  0  0  0  0  0  0  0
   -8.1979  -12.8600   13.2099 H   0  0  0  0  0  0  0  0  0  0  0  0
   -9.0888  -13.9574   14.3014 H   0  0  0  0  0  0  0  0  0  0  0  0
   -9.8269  -12.8346   13.1867 H   0  0  0  0  0  0  0  0  0  0  0  0
   -7.6647  -12.7798   17.0801 H   0  0  0  0  0  0  0  0  0  0  0  0
   -7.8819  -13.4853   19.5117 H   0  0  0  0  0  0  0  0  0  0  0  0
   -9.4439  -12.9713   20.3668 H   0  0  0  0  0  0  0  0  0  0  0  0
   -8.2008  -16.5295   20.1571 H   0  0  0  0  0  0  0  0  0  0  0  0
  -10.0944  -17.7074   21.6416 H   0  0  0  0  0  0  0  0  0  0  0  0
  -11.4494  -13.9954   20.8972 H   0  0  0  0  0  0  0  0  0  0  0  0
   -7.4088  -10.6876   13.6220 H   0  0  0  0  0  0  0  0  0  0  0  0
   -7.3284   -9.7831   15.0136 H   0  0  0  0  0  0  0  0  0  0  0  0
   -7.5480   -8.0253   14.2426 H   0  0  0  0  0  0  0  0  0  0  0  0
   -6.3210   -9.0781   13.2780 H   0  0  0  0  0  0  0  0  0  0  0  0
  1  2  1  0
  2  3  1  0
  3  4  1  0
  3  5  1  0
  5  6  2  0
  5  7  1  0
  7  8  1  0
  8  9  1  0
  9 10  1  0
 10 11  1  0
 11 12  1  0
 11 13  1  0
 13 14  1  0
 14 15  2  0
 14 16  1  0
 16 17  1  0
 17 18  2  0
 18 19  1  0
 19 20  2  0
 20 21  1  0
 10 22  1  0
 22 23  1  0
 23  7  1  0
 21 17  1  0
  1 24  1  0
  1 25  1  0
  1 26  1  0
  2 27  1  0
  2 28  1  0
  3 29  1  0
  4 30  1  0
  4 31  1  0
  4 32  1  0
  8 33  1  0
  8 34  1  0
  9 35  1  0
  9 36  1  0
 10 37  1  0
 11 38  1  0
 12 39  1  0
 12 40  1  0
 12 41  1  0
 13 42  1  0
 16 43  1  0
 16 44  1  0
 18 45  1  0
 19 46  1  0
 21 47  1  0
 22 48  1  0
 22 49  1  0
 23 50  1  0
 23 51  1  0
M  END
>  <Energy>  (248) 
832.59960786856379

>  <compound_id>  (248) 
15312

>  <target_id>  (248) 
1

>  <reference_id>  (248) 
99

>  <inspiration_ids>  (248) 
[46, 99]

>  <energy_score>  (248) 
767.7941803170992

>  <distance_score>  (248) 
10.07755667004735

>  <path>  (248) 
/opt/xchem-fragalysis-2/maxwin/BulkDock/SCRATCH/511022/C15312-P99/C15312-P99.minimised.mol

>  <scratch_subdir>  (248) 
/opt/xchem-fragalysis-2/maxwin/BulkDock/SCRATCH/511022/C15312-P99

>  <fragmenstein_runtime>  (248) 
27.325092554092407

>  <fragmenstein_outcome>  (248) 
too moved

>  <fragmenstein_mode>  (248) 
expansion

>  <fragmenstein_error>  (248) 


$$$$
C15320-P46
     RDKit          3D

 52 53  0  0  0  0  0  0  0  0999 V2000
  -12.6232  -22.1293   31.7635 C   0  0  0  0  0  0  0  0  0  0  0  0
  -11.6265  -22.3888   30.6466 C   0  0  0  0  0  0  0  0  0  0  0  0
  -11.6352  -23.7826   30.0315 C   0  0  0  0  0  0  0  0  0  0  0  0
  -11.7994  -21.1565   29.2774 S   0  0  0  0  0  0  0  0  0  0  0  0
  -10.0148  -20.6396   29.0029 C   0  0  0  0  0  0  0  0  0  0  0  0
   -8.4789  -19.3557   28.2742 C   0  0  0  0  0  0  0  0  0  0  0  0
   -7.5045  -20.0954   27.7668 O   0  0  0  0  0  0  0  0  0  0  0  0
   -8.3508  -17.5270   28.3326 N   0  0  0  0  0  0  0  0  0  0  0  0
   -7.0525  -16.4182   27.9354 C   0  0  0  0  0  0  0  0  0  0  0  0
   -6.9450  -14.6752   27.2811 C   0  0  0  0  0  0  0  0  0  0  0  0
   -7.2007  -14.3806   25.4091 C   0  0  0  0  0  0  0  0  0  0  0  0
   -6.1878  -13.3692   23.7443 C   0  0  0  0  0  0  0  0  0  0  0  0
   -6.1258  -11.9192   24.6518 C   0  0  0  0  0  0  0  0  0  0  0  0
   -6.1584  -12.4366   21.9881 N   0  0  0  0  0  0  0  0  0  0  0  0
   -7.0803  -12.7837   20.2738 C   0  0  0  0  0  0  0  0  0  0  0  0
   -7.9505  -13.6492   20.1618 O   0  0  0  0  0  0  0  0  0  0  0  0
   -6.7065  -12.0686   18.5866 C   0  0  0  0  0  0  0  0  0  0  0  0
   -5.4365  -11.3032   17.4528 C   0  0  0  0  0  0  0  0  0  0  0  0
   -4.1141  -11.5228   17.0336 C   0  0  0  0  0  0  0  0  0  0  0  0
   -3.8004  -10.5375   16.0582 C   0  0  0  0  0  0  0  0  0  0  0  0
   -4.8010   -9.6950   15.8504 N   0  0  0  0  0  0  0  0  0  0  0  0
   -5.7637  -10.1515   16.6684 N   0  0  0  0  0  0  0  0  0  0  0  0
   -8.5659  -15.4002   26.0079 C   0  0  0  0  0  0  0  0  0  0  0  0
   -9.0263  -16.7611   26.8603 C   0  0  0  0  0  0  0  0  0  0  0  0
  -12.3379  -21.2310   32.3215 H   0  0  0  0  0  0  0  0  0  0  0  0
  -13.6435  -21.9824   31.4047 H   0  0  0  0  0  0  0  0  0  0  0  0
  -12.5970  -22.9379   32.5014 H   0  0  0  0  0  0  0  0  0  0  0  0
  -10.6909  -22.2511   31.1803 H   0  0  0  0  0  0  0  0  0  0  0  0
  -12.5078  -23.9566   29.3967 H   0  0  0  0  0  0  0  0  0  0  0  0
  -10.7625  -23.9469   29.3900 H   0  0  0  0  0  0  0  0  0  0  0  0
  -11.6012  -24.5490   30.8117 H   0  0  0  0  0  0  0  0  0  0  0  0
   -9.9301  -20.8255   30.0636 H   0  0  0  0  0  0  0  0  0  0  0  0
   -9.8605  -21.5536   28.3945 H   0  0  0  0  0  0  0  0  0  0  0  0
   -7.2182  -16.4738   26.9705 H   0  0  0  0  0  0  0  0  0  0  0  0
   -6.0937  -16.7445   28.3487 H   0  0  0  0  0  0  0  0  0  0  0  0
   -6.0575  -14.2571   27.7368 H   0  0  0  0  0  0  0  0  0  0  0  0
   -7.7182  -14.0944   27.8097 H   0  0  0  0  0  0  0  0  0  0  0  0
   -7.2968  -15.0726   24.6260 H   0  0  0  0  0  0  0  0  0  0  0  0
   -5.2684  -13.9171   23.6476 H   0  0  0  0  0  0  0  0  0  0  0  0
   -6.4744  -12.0397   25.6911 H   0  0  0  0  0  0  0  0  0  0  0  0
   -5.1100  -11.5512   24.7682 H   0  0  0  0  0  0  0  0  0  0  0  0
   -6.8087  -11.2224   24.1810 H   0  0  0  0  0  0  0  0  0  0  0  0
   -5.4260  -11.7609   21.8433 H   0  0  0  0  0  0  0  0  0  0  0  0
   -5.7260  -12.4012   18.9500 H   0  0  0  0  0  0  0  0  0  0  0  0
   -7.4178  -11.2620   18.6143 H   0  0  0  0  0  0  0  0  0  0  0  0
   -3.4020  -12.2700   17.3365 H   0  0  0  0  0  0  0  0  0  0  0  0
   -2.8745  -10.4091   15.5125 H   0  0  0  0  0  0  0  0  0  0  0  0
   -6.6134   -9.6101   16.7049 H   0  0  0  0  0  0  0  0  0  0  0  0
   -9.0733  -14.6931   26.6622 H   0  0  0  0  0  0  0  0  0  0  0  0
   -8.9841  -15.7764   25.1172 H   0  0  0  0  0  0  0  0  0  0  0  0
  -10.0173  -16.3616   27.1052 H   0  0  0  0  0  0  0  0  0  0  0  0
   -9.5562  -17.4186   26.2533 H   0  0  0  0  0  0  0  0  0  0  0  0
  1  2  1  0
  2  3  1  0
  2  4  1  0
  4  5  1  0
  5  6  1  0
  6  7  2  0
  6  8  1  0
  8  9  1  0
  9 10  1  0
 10 11  1  0
 11 12  1  0
 12 13  1  0
 12 14  1  0
 14 15  1  0
 15 16  2  0
 15 17  1  0
 17 18  1  0
 18 19  2  0
 19 20  1  0
 20 21  2  0
 21 22  1  0
 11 23  1  0
 23 24  1  0
 24  8  1  0
 22 18  1  0
  1 25  1  0
  1 26  1  0
  1 27  1  0
  2 28  1  0
  3 29  1  0
  3 30  1  0
  3 31  1  0
  5 32  1  0
  5 33  1  0
  9 34  1  0
  9 35  1  0
 10 36  1  0
 10 37  1  0
 11 38  1  0
 12 39  1  0
 13 40  1  0
 13 41  1  0
 13 42  1  0
 14 43  1  0
 17 44  1  0
 17 45  1  0
 19 46  1  0
 20 47  1  0
 22 48  1  0
 23 49  1  0
 23 50  1  0
 24 51  1  0
 24 52  1  0
M  END
>  <Energy>  (249) 
1229.1590387531023

>  <compound_id>  (249) 
15320

>  <target_id>  (249) 
1

>  <reference_id>  (249) 
46

>  <inspiration_ids>  (249) 
[46, 99]

>  <energy_score>  (249) 
1145.5691318952126

>  <distance_score>  (249) 
9.56752202389211

>  <path>  (249) 
/opt/xchem-fragalysis-2/maxwin/BulkDock/SCRATCH/511022/C15320-P46/C15320-P46.minimised.mol

>  <scratch_subdir>  (249) 
/opt/xchem-fragalysis-2/maxwin/BulkDock/SCRATCH/511022/C15320-P46

>  <fragmenstein_runtime>  (249) 
25.1008780002594

>  <fragmenstein_outcome>  (249) 
too moved

>  <fragmenstein_mode>  (249) 
expansion

>  <fragmenstein_error>  (249) 


$$$$
C15320-P99
     RDKit          3D

 52 53  0  0  0  0  0  0  0  0999 V2000
  -15.5845  -15.4164   26.4635 C   0  0  0  0  0  0  0  0  0  0  0  0
  -15.7068  -16.5723   25.4560 C   0  0  0  0  0  0  0  0  0  0  0  0
  -17.1964  -16.6684   25.1085 C   0  0  0  0  0  0  0  0  0  0  0  0
  -15.0509  -17.9810   26.3507 S   0  0  0  0  0  0  0  0  0  0  0  0
  -13.8053  -19.8117   25.3936 C   0  0  0  0  0  0  0  0  0  0  0  0
  -12.2670  -20.3415   27.1268 C   0  0  0  0  0  0  0  0  0  0  0  0
  -11.8734  -21.4095   27.6307 O   0  0  0  0  0  0  0  0  0  0  0  0
  -11.9588  -18.2694   27.5875 N   0  0  0  0  0  0  0  0  0  0  0  0
  -11.4275  -17.6197   28.4410 C   0  0  0  0  0  0  0  0  0  0  0  0
  -11.5945  -15.7798   27.0133 C   0  0  0  0  0  0  0  0  0  0  0  0
  -11.8675  -15.2498   24.7945 C   0  0  0  0  0  0  0  0  0  0  0  0
  -11.4304  -13.9261   22.7903 C   0  0  0  0  0  0  0  0  0  0  0  0
  -11.3100  -12.2703   23.7047 C   0  0  0  0  0  0  0  0  0  0  0  0
  -10.4585  -13.3365   20.7825 N   0  0  0  0  0  0  0  0  0  0  0  0
  -11.0329  -12.4706   18.8661 C   0  0  0  0  0  0  0  0  0  0  0  0
  -12.1329  -11.9737   18.4449 O   0  0  0  0  0  0  0  0  0  0  0  0
  -10.0469  -12.3611   17.8217 C   0  0  0  0  0  0  0  0  0  0  0  0
  -10.9695  -12.1650   16.0711 C   0  0  0  0  0  0  0  0  0  0  0  0
  -10.4498  -12.2602   14.7290 C   0  0  0  0  0  0  0  0  0  0  0  0
  -11.3639  -11.6638   13.8469 C   0  0  0  0  0  0  0  0  0  0  0  0
  -12.4405  -11.2345   14.4849 N   0  0  0  0  0  0  0  0  0  0  0  0
  -12.2132  -11.5755   15.7786 N   0  0  0  0  0  0  0  0  0  0  0  0
  -10.2452  -16.0205   25.9139 C   0  0  0  0  0  0  0  0  0  0  0  0
  -10.3626  -17.4719   26.6693 C   0  0  0  0  0  0  0  0  0  0  0  0
  -14.5465  -15.1786   26.6945 H   0  0  0  0  0  0  0  0  0  0  0  0
  -16.1147  -15.6100   27.4045 H   0  0  0  0  0  0  0  0  0  0  0  0
  -16.0149  -14.5022   26.0358 H   0  0  0  0  0  0  0  0  0  0  0  0
  -15.0999  -16.2994   24.6037 H   0  0  0  0  0  0  0  0  0  0  0  0
  -17.4477  -15.9023   24.3649 H   0  0  0  0  0  0  0  0  0  0  0  0
  -17.8327  -16.4641   25.9747 H   0  0  0  0  0  0  0  0  0  0  0  0
  -17.4933  -17.6363   24.6971 H   0  0  0  0  0  0  0  0  0  0  0  0
  -14.8803  -20.1783   25.1266 H   0  0  0  0  0  0  0  0  0  0  0  0
  -13.5867  -19.6844   24.3025 H   0  0  0  0  0  0  0  0  0  0  0  0
  -11.5848  -17.9576   29.4320 H   0  0  0  0  0  0  0  0  0  0  0  0
  -12.3067  -17.0359   28.8598 H   0  0  0  0  0  0  0  0  0  0  0  0
  -12.5968  -15.3462   27.3191 H   0  0  0  0  0  0  0  0  0  0  0  0
  -11.0864  -14.9329   27.5467 H   0  0  0  0  0  0  0  0  0  0  0  0
  -12.3344  -16.1158   24.2821 H   0  0  0  0  0  0  0  0  0  0  0  0
  -11.0867  -14.9239   22.6482 H   0  0  0  0  0  0  0  0  0  0  0  0
  -12.2600  -12.1277   24.2297 H   0  0  0  0  0  0  0  0  0  0  0  0
  -11.0748  -11.5469   22.9495 H   0  0  0  0  0  0  0  0  0  0  0  0
  -10.5793  -12.1374   24.5084 H   0  0  0  0  0  0  0  0  0  0  0  0
   -9.4763  -13.6058   20.7627 H   0  0  0  0  0  0  0  0  0  0  0  0
  -10.4392  -13.3032   17.8672 H   0  0  0  0  0  0  0  0  0  0  0  0
  -10.2700  -11.3379   18.0752 H   0  0  0  0  0  0  0  0  0  0  0  0
   -9.4798  -12.6250   14.4342 H   0  0  0  0  0  0  0  0  0  0  0  0
  -11.2824  -11.5184   12.7783 H   0  0  0  0  0  0  0  0  0  0  0  0
  -12.9594  -11.4667   16.4624 H   0  0  0  0  0  0  0  0  0  0  0  0
   -9.3489  -16.2121   25.2717 H   0  0  0  0  0  0  0  0  0  0  0  0
   -9.6496  -15.3746   26.6218 H   0  0  0  0  0  0  0  0  0  0  0  0
   -9.3789  -17.7849   27.0608 H   0  0  0  0  0  0  0  0  0  0  0  0
  -10.2672  -17.6951   25.6116 H   0  0  0  0  0  0  0  0  0  0  0  0
  1  2  1  0
  2  3  1  0
  2  4  1  0
  4  5  1  0
  5  6  1  0
  6  7  2  0
  6  8  1  0
  8  9  1  0
  9 10  1  0
 10 11  1  0
 11 12  1  0
 12 13  1  0
 12 14  1  0
 14 15  1  0
 15 16  2  0
 15 17  1  0
 17 18  1  0
 18 19  2  0
 19 20  1  0
 20 21  2  0
 21 22  1  0
 11 23  1  0
 23 24  1  0
 24  8  1  0
 22 18  1  0
  1 25  1  0
  1 26  1  0
  1 27  1  0
  2 28  1  0
  3 29  1  0
  3 30  1  0
  3 31  1  0
  5 32  1  0
  5 33  1  0
  9 34  1  0
  9 35  1  0
 10 36  1  0
 10 37  1  0
 11 38  1  0
 12 39  1  0
 13 40  1  0
 13 41  1  0
 13 42  1  0
 14 43  1  0
 17 44  1  0
 17 45  1  0
 19 46  1  0
 20 47  1  0
 22 48  1  0
 23 49  1  0
 23 50  1  0
 24 51  1  0
 24 52  1  0
M  END
>  <Energy>  (250) 
2655.0451523114875

>  <compound_id>  (250) 
15320

>  <target_id>  (250) 
1

>  <reference_id>  (250) 
99

>  <inspiration_ids>  (250) 
[46, 99]

>  <energy_score>  (250) 
2571.4552454535733

>  <distance_score>  (250) 
9.705640008327409

>  <path>  (250) 
/opt/xchem-fragalysis-2/maxwin/BulkDock/SCRATCH/511022/C15320-P99/C15320-P99.minimised.mol

>  <scratch_subdir>  (250) 
/opt/xchem-fragalysis-2/maxwin/BulkDock/SCRATCH/511022/C15320-P99

>  <fragmenstein_runtime>  (250) 
32.95092511177063

>  <fragmenstein_outcome>  (250) 
too moved

>  <fragmenstein_mode>  (250) 
expansion

>  <fragmenstein_error>  (250) 


$$$$
C59255-P46
     RDKit          3D

 52 54  0  0  0  0  0  0  0  0999 V2000
  -14.8348  -18.6710   15.2881 C   0  0  0  0  0  0  0  0  0  0  0  0
  -13.8682  -17.6940   14.6505 C   0  0  0  0  0  0  0  0  0  0  0  0
  -14.2294  -16.9875   13.7474 O   0  0  0  0  0  0  0  0  0  0  0  0
  -12.5923  -17.8222   15.2746 N   0  0  0  0  0  0  0  0  0  0  0  0
  -11.2700  -17.2026   14.9342 C   0  0  0  0  0  0  0  0  0  0  0  0
  -10.0523  -17.7631   15.6841 C   0  0  0  0  0  0  0  0  0  0  0  0
  -10.4646  -18.2406   17.0857 C   0  0  0  0  0  0  0  0  0  0  0  0
   -9.2763  -18.4520   18.0509 C   0  0  0  0  0  0  0  0  0  0  0  0
   -8.2677  -19.4642   17.5008 C   0  0  0  0  0  0  0  0  0  0  0  0
   -9.6359  -18.8414   19.4158 N   0  0  0  0  0  0  0  0  0  0  0  0
  -10.3513  -20.0114   19.9212 C   0  0  0  0  0  0  0  0  0  0  0  0
  -10.8931  -20.9066   19.3381 O   0  0  0  0  0  0  0  0  0  0  0  0
  -10.2292  -20.0193   21.4624 C   0  0  0  0  0  0  0  0  0  0  0  0
  -11.2444  -20.8031   22.2484 C   0  0  0  0  0  0  0  0  0  0  0  0
  -12.0829  -20.1362   23.0661 N   0  0  0  0  0  0  0  0  0  0  0  0
  -12.7974  -21.1067   23.6771 N   0  0  0  0  0  0  0  0  0  0  0  0
  -12.3830  -22.3568   23.3599 C   0  0  0  0  0  0  0  0  0  0  0  0
  -11.3760  -22.2091   22.4339 C   0  0  0  0  0  0  0  0  0  0  0  0
  -10.6220  -23.3726   21.8976 C   0  0  0  0  0  0  0  0  0  0  0  0
  -11.3325  -24.7032   22.2486 C   0  0  0  0  0  0  0  0  0  0  0  0
  -11.8895  -24.7349   23.6923 C   0  0  0  0  0  0  0  0  0  0  0  0
  -12.9099  -23.6151   23.9432 C   0  0  0  0  0  0  0  0  0  0  0  0
  -11.4893  -17.2268   17.5746 C   0  0  0  0  0  0  0  0  0  0  0  0
  -12.4890  -16.8667   16.4562 C   0  0  0  0  0  0  0  0  0  0  0  0
  -15.6333  -18.1113   15.7827 H   0  0  0  0  0  0  0  0  0  0  0  0
  -14.3440  -19.3115   16.0269 H   0  0  0  0  0  0  0  0  0  0  0  0
  -15.2594  -19.3100   14.5087 H   0  0  0  0  0  0  0  0  0  0  0  0
  -11.1294  -17.5369   13.8930 H   0  0  0  0  0  0  0  0  0  0  0  0
  -11.2641  -16.1132   14.7651 H   0  0  0  0  0  0  0  0  0  0  0  0
   -9.6439  -18.6138   15.1247 H   0  0  0  0  0  0  0  0  0  0  0  0
   -9.2618  -17.0075   15.7241 H   0  0  0  0  0  0  0  0  0  0  0  0
  -10.9804  -19.2057   16.9760 H   0  0  0  0  0  0  0  0  0  0  0  0
   -8.7538  -17.4941   18.1642 H   0  0  0  0  0  0  0  0  0  0  0  0
   -7.8262  -19.1223   16.5600 H   0  0  0  0  0  0  0  0  0  0  0  0
   -8.7380  -20.4380   17.3258 H   0  0  0  0  0  0  0  0  0  0  0  0
   -7.4465  -19.6179   18.2102 H   0  0  0  0  0  0  0  0  0  0  0  0
   -9.3775  -18.2479   20.1956 H   0  0  0  0  0  0  0  0  0  0  0  0
   -9.2324  -20.4195   21.6870 H   0  0  0  0  0  0  0  0  0  0  0  0
  -10.2447  -18.9846   21.8292 H   0  0  0  0  0  0  0  0  0  0  0  0
  -13.4981  -20.8558   24.3722 H   0  0  0  0  0  0  0  0  0  0  0  0
   -9.6186  -23.3748   22.3406 H   0  0  0  0  0  0  0  0  0  0  0  0
  -10.5035  -23.2948   20.8120 H   0  0  0  0  0  0  0  0  0  0  0  0
  -12.1650  -24.8598   21.5502 H   0  0  0  0  0  0  0  0  0  0  0  0
  -10.6337  -25.5348   22.1022 H   0  0  0  0  0  0  0  0  0  0  0  0
  -11.0545  -24.6151   24.3899 H   0  0  0  0  0  0  0  0  0  0  0  0
  -12.3485  -25.7083   23.8969 H   0  0  0  0  0  0  0  0  0  0  0  0
  -13.8620  -23.8661   23.4617 H   0  0  0  0  0  0  0  0  0  0  0  0
  -13.0904  -23.5220   25.0179 H   0  0  0  0  0  0  0  0  0  0  0  0
  -11.0168  -16.3208   17.9636 H   0  0  0  0  0  0  0  0  0  0  0  0
  -12.0395  -17.6578   18.4212 H   0  0  0  0  0  0  0  0  0  0  0  0
  -13.4715  -16.9523   16.9501 H   0  0  0  0  0  0  0  0  0  0  0  0
  -12.5159  -15.7960   16.1890 H   0  0  0  0  0  0  0  0  0  0  0  0
  1  2  1  0
  2  3  2  0
  2  4  1  0
  4  5  1  0
  5  6  1  0
  6  7  1  0
  7  8  1  0
  8  9  1  0
  8 10  1  0
 10 11  1  0
 11 12  2  0
 11 13  1  0
 13 14  1  0
 14 15  2  0
 15 16  1  0
 16 17  1  0
 17 18  2  0
 18 19  1  0
 19 20  1  0
 20 21  1  0
 21 22  1  0
  7 23  1  0
 23 24  1  0
 24  4  1  0
 18 14  1  0
 22 17  1  0
  1 25  1  0
  1 26  1  0
  1 27  1  0
  5 28  1  0
  5 29  1  0
  6 30  1  0
  6 31  1  0
  7 32  1  0
  8 33  1  0
  9 34  1  0
  9 35  1  0
  9 36  1  0
 10 37  1  0
 13 38  1  0
 13 39  1  0
 16 40  1  0
 19 41  1  0
 19 42  1  0
 20 43  1  0
 20 44  1  0
 21 45  1  0
 21 46  1  0
 22 47  1  0
 22 48  1  0
 23 49  1  0
 23 50  1  0
 24 51  1  0
 24 52  1  0
M  END
>  <Energy>  (251) 
90.140117773116145

>  <compound_id>  (251) 
59255

>  <target_id>  (251) 
1

>  <reference_id>  (251) 
46

>  <inspiration_ids>  (251) 
[46, 99]

>  <energy_score>  (251) 
37.53698513588847

>  <distance_score>  (251) 
15.351432927302822

>  <path>  (251) 
/opt/xchem-fragalysis-2/maxwin/BulkDock/SCRATCH/511022/C59255-P46/C59255-P46.minimised.mol

>  <scratch_subdir>  (251) 
/opt/xchem-fragalysis-2/maxwin/BulkDock/SCRATCH/511022/C59255-P46

>  <fragmenstein_runtime>  (251) 
38.618767499923706

>  <fragmenstein_outcome>  (251) 
too moved

>  <fragmenstein_mode>  (251) 
expansion

>  <fragmenstein_error>  (251) 


$$$$
C59255-P99
     RDKit          3D

 52 54  0  0  0  0  0  0  0  0999 V2000
   -2.7280  -15.9906   19.6159 C   0  0  0  0  0  0  0  0  0  0  0  0
   -3.6519  -15.1696   18.7401 C   0  0  0  0  0  0  0  0  0  0  0  0
   -3.2159  -14.5776   17.7889 O   0  0  0  0  0  0  0  0  0  0  0  0
   -4.9768  -15.2326   19.2672 N   0  0  0  0  0  0  0  0  0  0  0  0
   -6.2319  -14.4909   18.8714 C   0  0  0  0  0  0  0  0  0  0  0  0
   -7.4153  -14.6680   19.8265 C   0  0  0  0  0  0  0  0  0  0  0  0
   -7.9614  -16.1051   19.7905 C   0  0  0  0  0  0  0  0  0  0  0  0
   -8.8721  -16.4619   21.0076 C   0  0  0  0  0  0  0  0  0  0  0  0
   -8.1646  -16.4445   22.3671 C   0  0  0  0  0  0  0  0  0  0  0  0
   -9.5678  -17.7476   20.8716 N   0  0  0  0  0  0  0  0  0  0  0  0
  -10.7858  -18.2459   21.5020 C   0  0  0  0  0  0  0  0  0  0  0  0
  -11.5680  -17.7005   22.2292 O   0  0  0  0  0  0  0  0  0  0  0  0
  -11.0345  -19.7172   21.0706 C   0  0  0  0  0  0  0  0  0  0  0  0
  -11.8164  -20.5450   22.0610 C   0  0  0  0  0  0  0  0  0  0  0  0
  -11.3877  -20.6683   23.3264 N   0  0  0  0  0  0  0  0  0  0  0  0
  -12.3019  -21.4701   23.9175 N   0  0  0  0  0  0  0  0  0  0  0  0
  -13.2403  -21.9323   23.0606 C   0  0  0  0  0  0  0  0  0  0  0  0
  -12.9691  -21.3553   21.8434 C   0  0  0  0  0  0  0  0  0  0  0  0
  -13.7991  -21.6398   20.6439 C   0  0  0  0  0  0  0  0  0  0  0  0
  -15.1431  -22.2984   21.0425 C   0  0  0  0  0  0  0  0  0  0  0  0
  -14.9909  -23.3823   22.1378 C   0  0  0  0  0  0  0  0  0  0  0  0
  -14.3738  -22.8175   23.4247 C   0  0  0  0  0  0  0  0  0  0  0  0
   -6.7668  -17.0218   19.5812 C   0  0  0  0  0  0  0  0  0  0  0  0
   -5.7296  -16.3955   18.6483 C   0  0  0  0  0  0  0  0  0  0  0  0
   -1.9158  -15.3509   19.9725 H   0  0  0  0  0  0  0  0  0  0  0  0
   -3.2464  -16.4044   20.4859 H   0  0  0  0  0  0  0  0  0  0  0  0
   -2.3175  -16.8150   19.0266 H   0  0  0  0  0  0  0  0  0  0  0  0
   -5.9157  -13.4451   19.0086 H   0  0  0  0  0  0  0  0  0  0  0  0
   -6.4902  -14.4756   17.8016 H   0  0  0  0  0  0  0  0  0  0  0  0
   -8.2164  -13.9720   19.5706 H   0  0  0  0  0  0  0  0  0  0  0  0
   -7.0756  -14.4067   20.8337 H   0  0  0  0  0  0  0  0  0  0  0  0
   -8.5829  -16.1970   18.8899 H   0  0  0  0  0  0  0  0  0  0  0  0
   -9.6700  -15.7094   21.0562 H   0  0  0  0  0  0  0  0  0  0  0  0
   -7.6753  -15.4888   22.5682 H   0  0  0  0  0  0  0  0  0  0  0  0
   -8.8868  -16.6106   23.1755 H   0  0  0  0  0  0  0  0  0  0  0  0
   -7.4186  -17.2416   22.4459 H   0  0  0  0  0  0  0  0  0  0  0  0
   -9.1102  -18.5096   20.3876 H   0  0  0  0  0  0  0  0  0  0  0  0
  -10.0757  -20.2234   20.9062 H   0  0  0  0  0  0  0  0  0  0  0  0
  -11.5622  -19.6836   20.1105 H   0  0  0  0  0  0  0  0  0  0  0  0
  -12.2788  -21.6135   24.9250 H   0  0  0  0  0  0  0  0  0  0  0  0
  -13.2460  -22.3212   19.9863 H   0  0  0  0  0  0  0  0  0  0  0  0
  -13.9941  -20.7212   20.0800 H   0  0  0  0  0  0  0  0  0  0  0  0
  -15.8260  -21.5225   21.4130 H   0  0  0  0  0  0  0  0  0  0  0  0
  -15.6103  -22.7340   20.1520 H   0  0  0  0  0  0  0  0  0  0  0  0
  -14.3544  -24.1867   21.7472 H   0  0  0  0  0  0  0  0  0  0  0  0
  -15.9673  -23.8265   22.3614 H   0  0  0  0  0  0  0  0  0  0  0  0
  -15.1379  -22.2374   23.9538 H   0  0  0  0  0  0  0  0  0  0  0  0
  -14.0513  -23.6336   24.0796 H   0  0  0  0  0  0  0  0  0  0  0  0
   -7.1022  -17.9804   19.1678 H   0  0  0  0  0  0  0  0  0  0  0  0
   -6.2760  -17.2468   20.5348 H   0  0  0  0  0  0  0  0  0  0  0  0
   -6.0433  -16.2929   17.5952 H   0  0  0  0  0  0  0  0  0  0  0  0
   -4.9656  -17.1842   18.5475 H   0  0  0  0  0  0  0  0  0  0  0  0
  1  2  1  0
  2  3  2  0
  2  4  1  0
  4  5  1  0
  5  6  1  0
  6  7  1  0
  7  8  1  0
  8  9  1  0
  8 10  1  0
 10 11  1  0
 11 12  2  0
 11 13  1  0
 13 14  1  0
 14 15  2  0
 15 16  1  0
 16 17  1  0
 17 18  2  0
 18 19  1  0
 19 20  1  0
 20 21  1  0
 21 22  1  0
  7 23  1  0
 23 24  1  0
 24  4  1  0
 18 14  1  0
 22 17  1  0
  1 25  1  0
  1 26  1  0
  1 27  1  0
  5 28  1  0
  5 29  1  0
  6 30  1  0
  6 31  1  0
  7 32  1  0
  8 33  1  0
  9 34  1  0
  9 35  1  0
  9 36  1  0
 10 37  1  0
 13 38  1  0
 13 39  1  0
 16 40  1  0
 19 41  1  0
 19 42  1  0
 20 43  1  0
 20 44  1  0
 21 45  1  0
 21 46  1  0
 22 47  1  0
 22 48  1  0
 23 49  1  0
 23 50  1  0
 24 51  1  0
 24 52  1  0
M  END
>  <Energy>  (252) 
89.080689977698242

>  <compound_id>  (252) 
59255

>  <target_id>  (252) 
1

>  <reference_id>  (252) 
99

>  <inspiration_ids>  (252) 
[46, 99]

>  <energy_score>  (252) 
36.47755734046996

>  <distance_score>  (252) 
14.91133360002774

>  <path>  (252) 
/opt/xchem-fragalysis-2/maxwin/BulkDock/SCRATCH/511022/C59255-P99/C59255-P99.minimised.mol

>  <scratch_subdir>  (252) 
/opt/xchem-fragalysis-2/maxwin/BulkDock/SCRATCH/511022/C59255-P99

>  <fragmenstein_runtime>  (252) 
41.08843946456909

>  <fragmenstein_outcome>  (252) 
too moved

>  <fragmenstein_mode>  (252) 
expansion

>  <fragmenstein_error>  (252) 


$$$$
C35606-P46
     RDKit          3D

 56 57  0  0  0  0  0  0  0  0999 V2000
  -16.9816  -28.5171   27.2797 C   0  0  0  0  0  0  0  0  0  0  0  0
  -15.6339  -29.1799   27.5215 C   0  0  0  0  0  0  0  0  0  0  0  0
  -14.6502  -28.3064   28.3125 C   0  0  0  0  0  0  0  0  0  0  0  0
  -14.2289  -27.0400   27.5501 C   0  0  0  0  0  0  0  0  0  0  0  0
  -13.1899  -26.2068   28.1911 N   0  0  0  0  0  0  0  0  0  0  0  0
  -11.9098  -26.8628   28.4001 C   0  0  0  0  0  0  0  0  0  0  0  0
  -13.1301  -24.8798   27.5493 C   0  0  0  0  0  0  0  0  0  0  0  0
  -11.8632  -24.4379   26.8113 C   0  0  0  0  0  0  0  0  0  0  0  0
  -10.7907  -23.7474   27.6603 C   0  0  0  0  0  0  0  0  0  0  0  0
  -11.1871  -22.3476   28.0633 C   0  0  0  0  0  0  0  0  0  0  0  0
  -12.3733  -22.1542   28.0565 O   0  0  0  0  0  0  0  0  0  0  0  0
  -10.1189  -21.5054   28.4786 N   0  0  0  0  0  0  0  0  0  0  0  0
  -10.1333  -20.3236   29.0513 C   0  0  0  0  0  0  0  0  0  0  0  0
   -9.5759  -18.4772   27.8400 C   0  0  0  0  0  0  0  0  0  0  0  0
   -9.8353  -17.4036   25.8915 C   0  0  0  0  0  0  0  0  0  0  0  0
   -9.7503  -16.4518   23.9272 N   0  0  0  0  0  0  0  0  0  0  0  0
  -11.0862  -15.1505   23.0064 C   0  0  0  0  0  0  0  0  0  0  0  0
  -12.1272  -15.0425   23.6076 O   0  0  0  0  0  0  0  0  0  0  0  0
  -10.9830  -13.6589   21.4723 C   0  0  0  0  0  0  0  0  0  0  0  0
   -9.2189  -13.3824   20.5122 C   0  0  0  0  0  0  0  0  0  0  0  0
   -8.8018  -12.8634   19.1400 C   0  0  0  0  0  0  0  0  0  0  0  0
  -10.0344  -12.6511   18.8028 N   0  0  0  0  0  0  0  0  0  0  0  0
  -10.5699  -13.5788   19.7499 N   0  0  0  0  0  0  0  0  0  0  0  0
   -8.7092  -18.3383   27.3155 C   0  0  0  0  0  0  0  0  0  0  0  0
   -9.3176  -20.4964   27.6528 C   0  0  0  0  0  0  0  0  0  0  0  0
  -17.6705  -29.2281   26.8122 H   0  0  0  0  0  0  0  0  0  0  0  0
  -17.4292  -28.1803   28.2201 H   0  0  0  0  0  0  0  0  0  0  0  0
  -16.8918  -27.6567   26.6103 H   0  0  0  0  0  0  0  0  0  0  0  0
  -15.7999  -30.1069   28.0836 H   0  0  0  0  0  0  0  0  0  0  0  0
  -15.1934  -29.4683   26.5608 H   0  0  0  0  0  0  0  0  0  0  0  0
  -15.1255  -28.0418   29.2607 H   0  0  0  0  0  0  0  0  0  0  0  0
  -13.7786  -28.9265   28.5440 H   0  0  0  0  0  0  0  0  0  0  0  0
  -15.1396  -26.4494   27.4441 H   0  0  0  0  0  0  0  0  0  0  0  0
  -13.9257  -27.2854   26.5305 H   0  0  0  0  0  0  0  0  0  0  0  0
  -11.4094  -27.1188   27.4630 H   0  0  0  0  0  0  0  0  0  0  0  0
  -12.0266  -27.7844   28.9764 H   0  0  0  0  0  0  0  0  0  0  0  0
  -11.2421  -26.2439   29.0041 H   0  0  0  0  0  0  0  0  0  0  0  0
  -13.3939  -24.1635   28.3292 H   0  0  0  0  0  0  0  0  0  0  0  0
  -13.9292  -24.7986   26.8026 H   0  0  0  0  0  0  0  0  0  0  0  0
  -11.4356  -25.2898   26.2766 H   0  0  0  0  0  0  0  0  0  0  0  0
  -12.1653  -23.7409   26.0166 H   0  0  0  0  0  0  0  0  0  0  0  0
  -10.5456  -24.3062   28.5647 H   0  0  0  0  0  0  0  0  0  0  0  0
   -9.9245  -23.6898   27.0329 H   0  0  0  0  0  0  0  0  0  0  0  0
  -11.2699  -20.3966   29.2519 H   0  0  0  0  0  0  0  0  0  0  0  0
  -10.1315  -20.5433   30.1519 H   0  0  0  0  0  0  0  0  0  0  0  0
   -8.6604  -18.0542   28.8763 H   0  0  0  0  0  0  0  0  0  0  0  0
  -10.8688  -17.9226   28.1226 H   0  0  0  0  0  0  0  0  0  0  0  0
   -9.8083  -16.3993   26.3576 H   0  0  0  0  0  0  0  0  0  0  0  0
   -8.5664  -16.6164   22.9706 H   0  0  0  0  0  0  0  0  0  0  0  0
   -8.5515  -14.2343   20.4517 H   0  0  0  0  0  0  0  0  0  0  0  0
   -7.8747  -12.7154   18.6163 H   0  0  0  0  0  0  0  0  0  0  0  0
  -10.5878  -12.2781   18.0279 H   0  0  0  0  0  0  0  0  0  0  0  0
   -8.0146  -17.4061   27.6841 H   0  0  0  0  0  0  0  0  0  0  0  0
   -7.5665  -18.4520   26.9506 H   0  0  0  0  0  0  0  0  0  0  0  0
  -10.0444  -20.7031   26.8529 H   0  0  0  0  0  0  0  0  0  0  0  0
   -8.2549  -21.0698   27.4167 H   0  0  0  0  0  0  0  0  0  0  0  0
  1  2  1  0
  2  3  1  0
  3  4  1  0
  4  5  1  0
  5  6  1  0
  5  7  1  0
  7  8  1  0
  8  9  1  0
  9 10  1  0
 10 11  2  0
 10 12  1  0
 12 13  1  0
 13 14  1  0
 14 15  1  0
 15 16  1  0
 16 17  1  0
 17 18  2  0
 17 19  1  0
 19 20  1  0
 20 21  2  0
 21 22  1  0
 22 23  1  0
 15 24  1  0
 24 25  1  0
 25 12  1  0
 23 19  2  0
  1 26  1  0
  1 27  1  0
  1 28  1  0
  2 29  1  0
  2 30  1  0
  3 31  1  0
  3 32  1  0
  4 33  1  0
  4 34  1  0
  6 35  1  0
  6 36  1  0
  6 37  1  0
  7 38  1  0
  7 39  1  0
  8 40  1  0
  8 41  1  0
  9 42  1  0
  9 43  1  0
 13 44  1  0
 13 45  1  0
 14 46  1  0
 14 47  1  0
 15 48  1  0
 16 49  1  0
 20 50  1  0
 21 51  1  0
 22 52  1  0
 24 53  1  0
 24 54  1  0
 25 55  1  0
 25 56  1  0
M  END
>  <Energy>  (253) 
2209.4010191977945

>  <compound_id>  (253) 
35606

>  <target_id>  (253) 
1

>  <reference_id>  (253) 
46

>  <inspiration_ids>  (253) 
[46, 99]

>  <energy_score>  (253) 
2149.873267074705

>  <distance_score>  (253) 
10.013420374209282

>  <path>  (253) 
/opt/xchem-fragalysis-2/maxwin/BulkDock/SCRATCH/511022/C35606-P46/C35606-P46.minimised.mol

>  <scratch_subdir>  (253) 
/opt/xchem-fragalysis-2/maxwin/BulkDock/SCRATCH/511022/C35606-P46

>  <fragmenstein_runtime>  (253) 
36.123619556427

>  <fragmenstein_outcome>  (253) 
too moved

>  <fragmenstein_mode>  (253) 
expansion

>  <fragmenstein_error>  (253) 


$$$$
C35606-P99
     RDKit          3D

 56 57  0  0  0  0  0  0  0  0999 V2000
  -14.3363  -28.3698   23.3737 C   0  0  0  0  0  0  0  0  0  0  0  0
  -12.9308  -28.2376   23.9396 C   0  0  0  0  0  0  0  0  0  0  0  0
  -12.4834  -26.7859   24.1438 C   0  0  0  0  0  0  0  0  0  0  0  0
  -13.2953  -26.0514   25.2021 C   0  0  0  0  0  0  0  0  0  0  0  0
  -12.8615  -24.6932   25.5230 N   0  0  0  0  0  0  0  0  0  0  0  0
  -11.4694  -24.6303   25.9781 C   0  0  0  0  0  0  0  0  0  0  0  0
  -13.0585  -23.6807   24.4605 C   0  0  0  0  0  0  0  0  0  0  0  0
  -14.5175  -23.4296   24.0186 C   0  0  0  0  0  0  0  0  0  0  0  0
  -14.8357  -22.1011   23.2639 C   0  0  0  0  0  0  0  0  0  0  0  0
  -13.5930  -21.3833   22.7553 C   0  0  0  0  0  0  0  0  0  0  0  0
  -13.0912  -21.7349   21.7200 O   0  0  0  0  0  0  0  0  0  0  0  0
  -13.1632  -20.4072   23.7176 N   0  0  0  0  0  0  0  0  0  0  0  0
  -11.8896  -19.6015   23.7961 C   0  0  0  0  0  0  0  0  0  0  0  0
  -11.3290  -17.7038   24.3665 C   0  0  0  0  0  0  0  0  0  0  0  0
  -12.4219  -16.3102   23.7685 C   0  0  0  0  0  0  0  0  0  0  0  0
  -11.5618  -15.5603   22.5367 N   0  0  0  0  0  0  0  0  0  0  0  0
  -10.9943  -13.8143   22.3273 C   0  0  0  0  0  0  0  0  0  0  0  0
  -11.2749  -12.8237   23.1052 O   0  0  0  0  0  0  0  0  0  0  0  0
   -9.7000  -13.2387   20.9772 C   0  0  0  0  0  0  0  0  0  0  0  0
   -8.2274  -13.5217   19.8595 C   0  0  0  0  0  0  0  0  0  0  0  0
   -8.4023  -12.9946   18.5999 C   0  0  0  0  0  0  0  0  0  0  0  0
   -9.1082  -14.0591   19.2932 N   0  0  0  0  0  0  0  0  0  0  0  0
  -10.1831  -13.4662   19.6366 N   0  0  0  0  0  0  0  0  0  0  0  0
  -13.7322  -17.2659   23.5011 C   0  0  0  0  0  0  0  0  0  0  0  0
  -13.7996  -18.9741   23.3615 C   0  0  0  0  0  0  0  0  0  0  0  0
  -15.0907  -28.0227   24.0855 H   0  0  0  0  0  0  0  0  0  0  0  0
  -14.4430  -27.7965   22.4474 H   0  0  0  0  0  0  0  0  0  0  0  0
  -14.5529  -29.4193   23.1494 H   0  0  0  0  0  0  0  0  0  0  0  0
  -12.8652  -28.7856   24.8868 H   0  0  0  0  0  0  0  0  0  0  0  0
  -12.2311  -28.7202   23.2466 H   0  0  0  0  0  0  0  0  0  0  0  0
  -11.4239  -26.8080   24.4247 H   0  0  0  0  0  0  0  0  0  0  0  0
  -12.5435  -26.2575   23.1850 H   0  0  0  0  0  0  0  0  0  0  0  0
  -14.3511  -26.0292   24.9123 H   0  0  0  0  0  0  0  0  0  0  0  0
  -13.2636  -26.6483   26.1230 H   0  0  0  0  0  0  0  0  0  0  0  0
  -10.7751  -24.5149   25.1374 H   0  0  0  0  0  0  0  0  0  0  0  0
  -11.3321  -23.7889   26.6645 H   0  0  0  0  0  0  0  0  0  0  0  0
  -11.1554  -25.5439   26.4823 H   0  0  0  0  0  0  0  0  0  0  0  0
  -12.6175  -22.7513   24.8222 H   0  0  0  0  0  0  0  0  0  0  0  0
  -12.4739  -23.9526   23.5716 H   0  0  0  0  0  0  0  0  0  0  0  0
  -15.1943  -23.4881   24.8736 H   0  0  0  0  0  0  0  0  0  0  0  0
  -14.8173  -24.2584   23.3634 H   0  0  0  0  0  0  0  0  0  0  0  0
  -15.4145  -21.4370   23.9152 H   0  0  0  0  0  0  0  0  0  0  0  0
  -15.4879  -22.3090   22.4071 H   0  0  0  0  0  0  0  0  0  0  0  0
  -11.5202  -20.3558   24.5265 H   0  0  0  0  0  0  0  0  0  0  0  0
  -11.0683  -20.0337   23.1611 H   0  0  0  0  0  0  0  0  0  0  0  0
  -10.4867  -17.4713   23.7522 H   0  0  0  0  0  0  0  0  0  0  0  0
  -10.4234  -17.4888   25.0233 H   0  0  0  0  0  0  0  0  0  0  0  0
  -12.5917  -15.5879   24.5634 H   0  0  0  0  0  0  0  0  0  0  0  0
  -11.2837  -16.0737   21.7822 H   0  0  0  0  0  0  0  0  0  0  0  0
   -7.1860  -13.2283   19.9810 H   0  0  0  0  0  0  0  0  0  0  0  0
   -9.1396  -12.4056   18.0989 H   0  0  0  0  0  0  0  0  0  0  0  0
   -9.1158  -15.1078   19.2372 H   0  0  0  0  0  0  0  0  0  0  0  0
  -14.2052  -16.8985   22.5764 H   0  0  0  0  0  0  0  0  0  0  0  0
  -14.5122  -17.0124   24.2329 H   0  0  0  0  0  0  0  0  0  0  0  0
  -14.7052  -19.1112   23.9816 H   0  0  0  0  0  0  0  0  0  0  0  0
  -14.2573  -19.1359   22.3670 H   0  0  0  0  0  0  0  0  0  0  0  0
  1  2  1  0
  2  3  1  0
  3  4  1  0
  4  5  1  0
  5  6  1  0
  5  7  1  0
  7  8  1  0
  8  9  1  0
  9 10  1  0
 10 11  2  0
 10 12  1  0
 12 13  1  0
 13 14  1  0
 14 15  1  0
 15 16  1  0
 16 17  1  0
 17 18  2  0
 17 19  1  0
 19 20  1  0
 20 21  2  0
 21 22  1  0
 22 23  1  0
 15 24  1  0
 24 25  1  0
 25 12  1  0
 23 19  2  0
  1 26  1  0
  1 27  1  0
  1 28  1  0
  2 29  1  0
  2 30  1  0
  3 31  1  0
  3 32  1  0
  4 33  1  0
  4 34  1  0
  6 35  1  0
  6 36  1  0
  6 37  1  0
  7 38  1  0
  7 39  1  0
  8 40  1  0
  8 41  1  0
  9 42  1  0
  9 43  1  0
 13 44  1  0
 13 45  1  0
 14 46  1  0
 14 47  1  0
 15 48  1  0
 16 49  1  0
 20 50  1  0
 21 51  1  0
 22 52  1  0
 24 53  1  0
 24 54  1  0
 25 55  1  0
 25 56  1  0
M  END
>  <Energy>  (254) 
727.91637607736629

>  <compound_id>  (254) 
35606

>  <target_id>  (254) 
1

>  <reference_id>  (254) 
99

>  <inspiration_ids>  (254) 
[46, 99]

>  <energy_score>  (254) 
668.3886239542596

>  <distance_score>  (254) 
11.47135162471343

>  <path>  (254) 
/opt/xchem-fragalysis-2/maxwin/BulkDock/SCRATCH/511022/C35606-P99/C35606-P99.minimised.mol

>  <scratch_subdir>  (254) 
/opt/xchem-fragalysis-2/maxwin/BulkDock/SCRATCH/511022/C35606-P99

>  <fragmenstein_runtime>  (254) 
41.751909017562866

>  <fragmenstein_outcome>  (254) 
too moved

>  <fragmenstein_mode>  (254) 
expansion

>  <fragmenstein_error>  (254) 


$$$$
C15324-P46
     RDKit          3D

 36 37  0  0  0  0  0  0  0  0999 V2000
   -7.4493  -16.3936   26.9660 C   0  0  0  0  0  0  0  0  0  0  0  0
   -8.6640  -15.6758   26.7905 O   0  0  0  0  0  0  0  0  0  0  0  0
   -8.5289  -14.3389   27.3002 N   0  0  0  0  0  0  0  0  0  0  0  0
   -9.7165  -13.8344   27.5575 C   0  0  0  0  0  0  0  0  0  0  0  0
  -10.0374  -12.3894   27.5320 C   0  0  0  0  0  0  0  0  0  0  0  0
   -9.2828  -11.7469   26.8849 O   0  0  0  0  0  0  0  0  0  0  0  0
  -11.2103  -12.0204   28.1822 N   0  0  0  0  0  0  0  0  0  0  0  0
  -11.8340  -10.6904   28.3673 C   0  0  0  0  0  0  0  0  0  0  0  0
  -11.1753   -9.7128   27.3609 C   0  0  0  0  0  0  0  0  0  0  0  0
  -11.3867  -10.1615   25.6246 C   0  0  0  0  0  0  0  0  0  0  0  0
  -11.6949   -8.5218   24.4801 C   0  0  0  0  0  0  0  0  0  0  0  0
  -12.6594   -6.9673   23.9457 C   0  0  0  0  0  0  0  0  0  0  0  0
  -13.8107   -6.6889   23.0602 C   0  0  0  0  0  0  0  0  0  0  0  0
  -14.2342   -5.3555   23.2086 C   0  0  0  0  0  0  0  0  0  0  0  0
  -13.3607   -4.7085   23.9613 N   0  0  0  0  0  0  0  0  0  0  0  0
  -12.6745   -5.7056   24.5700 N   0  0  0  0  0  0  0  0  0  0  0  0
  -12.2899  -11.5957   25.8605 C   0  0  0  0  0  0  0  0  0  0  0  0
  -12.3738  -12.2035   27.2782 C   0  0  0  0  0  0  0  0  0  0  0  0
   -6.7415  -15.8676   27.6132 H   0  0  0  0  0  0  0  0  0  0  0  0
   -6.9907  -16.5515   25.9869 H   0  0  0  0  0  0  0  0  0  0  0  0
   -7.6920  -17.3584   27.4046 H   0  0  0  0  0  0  0  0  0  0  0  0
  -10.6330  -14.4530   27.5721 H   0  0  0  0  0  0  0  0  0  0  0  0
  -11.4357  -10.3842   29.3480 H   0  0  0  0  0  0  0  0  0  0  0  0
  -12.9144  -10.5451   28.5335 H   0  0  0  0  0  0  0  0  0  0  0  0
  -11.5308   -8.6966   27.5523 H   0  0  0  0  0  0  0  0  0  0  0  0
  -10.1423   -9.6318   27.7076 H   0  0  0  0  0  0  0  0  0  0  0  0
  -10.5629  -10.7276   25.1643 H   0  0  0  0  0  0  0  0  0  0  0  0
  -11.2998   -8.0581   25.3416 H   0  0  0  0  0  0  0  0  0  0  0  0
  -11.0901   -8.5871   23.5463 H   0  0  0  0  0  0  0  0  0  0  0  0
  -14.3501   -7.4456   22.4952 H   0  0  0  0  0  0  0  0  0  0  0  0
  -15.0640   -4.8357   22.7489 H   0  0  0  0  0  0  0  0  0  0  0  0
  -12.0618   -5.4664   25.3426 H   0  0  0  0  0  0  0  0  0  0  0  0
  -11.8186  -12.2981   25.1872 H   0  0  0  0  0  0  0  0  0  0  0  0
  -13.3502  -11.5683   25.5780 H   0  0  0  0  0  0  0  0  0  0  0  0
  -12.3828  -13.2887   27.0828 H   0  0  0  0  0  0  0  0  0  0  0  0
  -13.3742  -12.1270   27.7439 H   0  0  0  0  0  0  0  0  0  0  0  0
  1  2  1  0
  2  3  1  0
  3  4  2  3
  4  5  1  0
  5  6  2  0
  5  7  1  0
  7  8  1  0
  8  9  1  0
  9 10  1  0
 10 11  1  0
 11 12  1  0
 12 13  2  0
 13 14  1  0
 14 15  2  0
 15 16  1  0
 10 17  1  0
 17 18  1  0
 18  7  1  0
 16 12  1  0
  1 19  1  0
  1 20  1  0
  1 21  1  0
  4 22  1  0
  8 23  1  0
  8 24  1  0
  9 25  1  0
  9 26  1  0
 10 27  1  0
 11 28  1  0
 11 29  1  0
 13 30  1  0
 14 31  1  0
 16 32  1  0
 17 33  1  0
 17 34  1  0
 18 35  1  0
 18 36  1  0
M  END
>  <Energy>  (255) 
361.42084686254111

>  <compound_id>  (255) 
15324

>  <target_id>  (255) 
1

>  <reference_id>  (255) 
46

>  <inspiration_ids>  (255) 
[46, 99]

>  <energy_score>  (255) 
273.17044910858965

>  <distance_score>  (255) 
13.917354539671113

>  <path>  (255) 
/opt/xchem-fragalysis-2/maxwin/BulkDock/SCRATCH/511022/C15324-P46/C15324-P46.minimised.mol

>  <scratch_subdir>  (255) 
/opt/xchem-fragalysis-2/maxwin/BulkDock/SCRATCH/511022/C15324-P46

>  <fragmenstein_runtime>  (255) 
16.074142932891846

>  <fragmenstein_outcome>  (255) 
too moved

>  <fragmenstein_mode>  (255) 
expansion

>  <fragmenstein_error>  (255) 


$$$$
C15324-P99
     RDKit          3D

 36 37  0  0  0  0  0  0  0  0999 V2000
  -13.7674  -19.0108   35.2401 C   0  0  0  0  0  0  0  0  0  0  0  0
  -13.5065  -17.8485   34.4634 O   0  0  0  0  0  0  0  0  0  0  0  0
  -14.6844  -17.1069   34.3522 N   0  0  0  0  0  0  0  0  0  0  0  0
  -14.4449  -15.8361   34.1712 C   0  0  0  0  0  0  0  0  0  0  0  0
  -13.0999  -15.1347   34.0880 C   0  0  0  0  0  0  0  0  0  0  0  0
  -12.2849  -15.3678   34.9320 O   0  0  0  0  0  0  0  0  0  0  0  0
  -13.0768  -14.2006   33.0056 N   0  0  0  0  0  0  0  0  0  0  0  0
  -12.0774  -13.1427   32.6507 C   0  0  0  0  0  0  0  0  0  0  0  0
  -12.4945  -12.1816   31.5469 C   0  0  0  0  0  0  0  0  0  0  0  0
  -12.5220  -12.8571   30.1805 C   0  0  0  0  0  0  0  0  0  0  0  0
  -11.1752  -12.7481   29.4061 C   0  0  0  0  0  0  0  0  0  0  0  0
  -11.3440  -12.4947   27.9238 C   0  0  0  0  0  0  0  0  0  0  0  0
  -12.3920  -12.7379   27.0638 C   0  0  0  0  0  0  0  0  0  0  0  0
  -11.9476  -12.2834   25.8300 C   0  0  0  0  0  0  0  0  0  0  0  0
  -10.7269  -11.7733   25.8599 N   0  0  0  0  0  0  0  0  0  0  0  0
  -10.3551  -11.9498   27.1370 N   0  0  0  0  0  0  0  0  0  0  0  0
  -12.9917  -14.2904   30.4137 C   0  0  0  0  0  0  0  0  0  0  0  0
  -12.4981  -14.8564   31.7579 C   0  0  0  0  0  0  0  0  0  0  0  0
  -14.2633  -18.7415   36.1785 H   0  0  0  0  0  0  0  0  0  0  0  0
  -14.3926  -19.7078   34.6761 H   0  0  0  0  0  0  0  0  0  0  0  0
  -12.8096  -19.4733   35.4834 H   0  0  0  0  0  0  0  0  0  0  0  0
  -15.3022  -15.1516   34.0764 H   0  0  0  0  0  0  0  0  0  0  0  0
  -11.0151  -13.4424   32.6428 H   0  0  0  0  0  0  0  0  0  0  0  0
  -12.0901  -12.5283   33.5658 H   0  0  0  0  0  0  0  0  0  0  0  0
  -11.8436  -11.3000   31.5420 H   0  0  0  0  0  0  0  0  0  0  0  0
  -13.5038  -11.8123   31.7755 H   0  0  0  0  0  0  0  0  0  0  0  0
  -13.2881  -12.3330   29.5942 H   0  0  0  0  0  0  0  0  0  0  0  0
  -10.5767  -13.6552   29.5484 H   0  0  0  0  0  0  0  0  0  0  0  0
  -10.5846  -11.9157   29.8095 H   0  0  0  0  0  0  0  0  0  0  0  0
  -13.3440  -13.1917   27.2983 H   0  0  0  0  0  0  0  0  0  0  0  0
  -12.4594  -12.3300   24.8951 H   0  0  0  0  0  0  0  0  0  0  0  0
   -9.4025  -11.7030   27.3966 H   0  0  0  0  0  0  0  0  0  0  0  0
  -12.6981  -14.9430   29.5855 H   0  0  0  0  0  0  0  0  0  0  0  0
  -14.0886  -14.2871   30.4298 H   0  0  0  0  0  0  0  0  0  0  0  0
  -11.4202  -15.0745   31.7857 H   0  0  0  0  0  0  0  0  0  0  0  0
  -12.9378  -15.8589   31.7772 H   0  0  0  0  0  0  0  0  0  0  0  0
  1  2  1  0
  2  3  1  0
  3  4  2  3
  4  5  1  0
  5  6  2  0
  5  7  1  0
  7  8  1  0
  8  9  1  0
  9 10  1  0
 10 11  1  0
 11 12  1  0
 12 13  2  0
 13 14  1  0
 14 15  2  0
 15 16  1  0
 10 17  1  0
 17 18  1  0
 18  7  1  0
 16 12  1  0
  1 19  1  0
  1 20  1  0
  1 21  1  0
  4 22  1  0
  8 23  1  0
  8 24  1  0
  9 25  1  0
  9 26  1  0
 10 27  1  0
 11 28  1  0
 11 29  1  0
 13 30  1  0
 14 31  1  0
 16 32  1  0
 17 33  1  0
 17 34  1  0
 18 35  1  0
 18 36  1  0
M  END
>  <Energy>  (256) 
128.05338845105342

>  <compound_id>  (256) 
15324

>  <target_id>  (256) 
1

>  <reference_id>  (256) 
99

>  <inspiration_ids>  (256) 
[46, 99]

>  <energy_score>  (256) 
39.80299069710611

>  <distance_score>  (256) 
14.198375914639461

>  <path>  (256) 
/opt/xchem-fragalysis-2/maxwin/BulkDock/SCRATCH/511022/C15324-P99/C15324-P99.minimised.mol

>  <scratch_subdir>  (256) 
/opt/xchem-fragalysis-2/maxwin/BulkDock/SCRATCH/511022/C15324-P99

>  <fragmenstein_runtime>  (256) 
18.68340802192688

>  <fragmenstein_outcome>  (256) 
too moved

>  <fragmenstein_mode>  (256) 
expansion

>  <fragmenstein_error>  (256) 


$$$$
C35613-P46
     RDKit          3D

 52 53  0  0  0  0  0  0  0  0999 V2000
   -7.0643   -4.4539    4.4042 C   0  0  0  0  0  0  0  0  0  0  0  0
   -7.2006   -4.2747    5.8896 C   0  0  0  0  0  0  0  0  0  0  0  0
   -7.2195   -3.0710    6.1739 O   0  0  0  0  0  0  0  0  0  0  0  0
   -7.1820   -5.6262    6.8860 N   0  0  0  0  0  0  0  0  0  0  0  0
   -7.0371   -5.7824    8.9016 C   0  0  0  0  0  0  0  0  0  0  0  0
   -6.0998   -4.2829    7.9610 C   0  0  0  0  0  0  0  0  0  0  0  0
   -6.5915   -7.4720   10.3996 C   0  0  0  0  0  0  0  0  0  0  0  0
   -5.5525   -7.2193   11.0062 O   0  0  0  0  0  0  0  0  0  0  0  0
   -7.4994   -9.0847   11.2231 N   0  0  0  0  0  0  0  0  0  0  0  0
   -8.5408   -9.1768   12.3316 C   0  0  0  0  0  0  0  0  0  0  0  0
   -9.5479  -10.5742   12.6891 C   0  0  0  0  0  0  0  0  0  0  0  0
   -8.9526  -11.7892   13.4803 C   0  0  0  0  0  0  0  0  0  0  0  0
   -8.3663  -11.0084   14.5886 C   0  0  0  0  0  0  0  0  0  0  0  0
   -8.4671  -12.1769   16.4074 N   0  0  0  0  0  0  0  0  0  0  0  0
   -9.8345  -12.2901   17.8899 C   0  0  0  0  0  0  0  0  0  0  0  0
  -10.7771  -11.5274   17.8272 O   0  0  0  0  0  0  0  0  0  0  0  0
  -10.0339  -13.4678   19.5417 C   0  0  0  0  0  0  0  0  0  0  0  0
  -11.3953  -13.4087   21.0827 C   0  0  0  0  0  0  0  0  0  0  0  0
  -12.1915  -14.5185   21.6191 C   0  0  0  0  0  0  0  0  0  0  0  0
  -11.2325  -13.8618   22.2992 N   0  0  0  0  0  0  0  0  0  0  0  0
   -9.9356  -13.0460   21.2387 N   0  0  0  0  0  0  0  0  0  0  0  0
   -7.1002  -10.2434   12.9162 C   0  0  0  0  0  0  0  0  0  0  0  0
   -8.4722   -4.4373    8.6917 C   0  0  0  0  0  0  0  0  0  0  0  0
   -9.2841   -4.4655    7.3117 C   0  0  0  0  0  0  0  0  0  0  0  0
   -8.4438   -2.7650    8.6307 C   0  0  0  0  0  0  0  0  0  0  0  0
   -6.3638   -3.6891    4.0562 H   0  0  0  0  0  0  0  0  0  0  0  0
   -8.0009   -4.2061    3.8993 H   0  0  0  0  0  0  0  0  0  0  0  0
   -6.5624   -5.3628    4.0943 H   0  0  0  0  0  0  0  0  0  0  0  0
   -7.0836   -6.4479    6.3320 H   0  0  0  0  0  0  0  0  0  0  0  0
   -5.0405   -4.0170    8.1002 H   0  0  0  0  0  0  0  0  0  0  0  0
   -5.6633   -4.3908    6.9414 H   0  0  0  0  0  0  0  0  0  0  0  0
   -6.5802   -3.3283    7.8716 H   0  0  0  0  0  0  0  0  0  0  0  0
   -9.3267   -9.0003   11.6249 H   0  0  0  0  0  0  0  0  0  0  0  0
   -8.3700   -8.7012   13.3026 H   0  0  0  0  0  0  0  0  0  0  0  0
  -10.1324  -10.9207   11.8261 H   0  0  0  0  0  0  0  0  0  0  0  0
  -10.2880  -10.0596   13.3077 H   0  0  0  0  0  0  0  0  0  0  0  0
   -9.4704  -12.6028   13.9654 H   0  0  0  0  0  0  0  0  0  0  0  0
   -8.2344  -12.3276   12.8549 H   0  0  0  0  0  0  0  0  0  0  0  0
   -9.0131  -10.1413   14.7406 H   0  0  0  0  0  0  0  0  0  0  0  0
   -7.8080  -12.9038   16.5356 H   0  0  0  0  0  0  0  0  0  0  0  0
  -11.7861  -12.3801   21.7311 H   0  0  0  0  0  0  0  0  0  0  0  0
  -12.2472  -15.5768   21.3908 H   0  0  0  0  0  0  0  0  0  0  0  0
  -11.4549  -13.4527   23.2192 H   0  0  0  0  0  0  0  0  0  0  0  0
   -6.6839  -11.1398   12.4323 H   0  0  0  0  0  0  0  0  0  0  0  0
   -6.2583   -9.7014   13.3275 H   0  0  0  0  0  0  0  0  0  0  0  0
   -9.1965   -4.6286    9.4738 H   0  0  0  0  0  0  0  0  0  0  0  0
   -9.4718   -5.4760    6.9352 H   0  0  0  0  0  0  0  0  0  0  0  0
   -9.0611   -3.9078    6.4169 H   0  0  0  0  0  0  0  0  0  0  0  0
  -10.1508   -3.7876    7.4277 H   0  0  0  0  0  0  0  0  0  0  0  0
   -8.6621   -2.3273    7.6498 H   0  0  0  0  0  0  0  0  0  0  0  0
   -9.2832   -2.3644    9.2021 H   0  0  0  0  0  0  0  0  0  0  0  0
   -7.5632   -2.2029    8.9338 H   0  0  0  0  0  0  0  0  0  0  0  0
  1  2  1  0
  2  3  2  0
  2  4  1  0
  4  5  1  0
  5  6  1  0
  5  7  1  0
  7  8  2  0
  7  9  1  0
  9 10  1  0
 10 11  1  0
 11 12  1  0
 12 13  1  0
 13 14  1  0
 14 15  1  0
 15 16  2  0
 15 17  1  0
 17 18  1  0
 18 19  2  0
 19 20  1  0
 20 21  1  0
 13 22  1  0
  5 23  1  0
 23 24  1  0
 23 25  1  0
 22  9  1  0
 21 17  2  0
  1 26  1  0
  1 27  1  0
  1 28  1  0
  4 29  1  0
  6 30  1  0
  6 31  1  0
  6 32  1  0
 10 33  1  0
 10 34  1  0
 11 35  1  0
 11 36  1  0
 12 37  1  0
 12 38  1  0
 13 39  1  0
 14 40  1  0
 18 41  1  0
 19 42  1  0
 20 43  1  0
 22 44  1  0
 22 45  1  0
 23 46  1  0
 24 47  1  0
 24 48  1  0
 24 49  1  0
 25 50  1  0
 25 51  1  0
 25 52  1  0
M  END
>  <Energy>  (257) 
2325.3373197034953

>  <compound_id>  (257) 
35613

>  <target_id>  (257) 
1

>  <reference_id>  (257) 
46

>  <inspiration_ids>  (257) 
[46, 99]

>  <energy_score>  (257) 
2197.2292224533617

>  <distance_score>  (257) 
10.5404467594555

>  <path>  (257) 
/opt/xchem-fragalysis-2/maxwin/BulkDock/SCRATCH/511022/C35613-P46/C35613-P46.minimised.mol

>  <scratch_subdir>  (257) 
/opt/xchem-fragalysis-2/maxwin/BulkDock/SCRATCH/511022/C35613-P46

>  <fragmenstein_runtime>  (257) 
40.91148400306702

>  <fragmenstein_outcome>  (257) 
too moved

>  <fragmenstein_mode>  (257) 
expansion

>  <fragmenstein_error>  (257) 


$$$$
C35613-P99
     RDKit          3D

 52 53  0  0  0  0  0  0  0  0999 V2000
  -13.2033    0.0005   11.8929 C   0  0  0  0  0  0  0  0  0  0  0  0
  -12.4143   -0.8907   10.9491 C   0  0  0  0  0  0  0  0  0  0  0  0
  -12.5291   -0.7279    9.7646 O   0  0  0  0  0  0  0  0  0  0  0  0
  -11.5104   -1.8055   11.7280 N   0  0  0  0  0  0  0  0  0  0  0  0
  -10.2252   -2.8709   11.1993 C   0  0  0  0  0  0  0  0  0  0  0  0
   -9.7308   -1.0774   11.0446 C   0  0  0  0  0  0  0  0  0  0  0  0
  -10.1460   -4.8336   12.1690 C   0  0  0  0  0  0  0  0  0  0  0  0
  -10.2103   -5.6214   11.3462 O   0  0  0  0  0  0  0  0  0  0  0  0
  -10.2413   -5.7434   13.9896 N   0  0  0  0  0  0  0  0  0  0  0  0
   -8.6247   -6.1501   14.5957 C   0  0  0  0  0  0  0  0  0  0  0  0
   -7.6679   -7.8463   14.3144 C   0  0  0  0  0  0  0  0  0  0  0  0
   -8.5871   -9.5374   14.2372 C   0  0  0  0  0  0  0  0  0  0  0  0
  -10.3504   -9.9506   14.8560 C   0  0  0  0  0  0  0  0  0  0  0  0
  -11.0107  -11.3351   16.3825 N   0  0  0  0  0  0  0  0  0  0  0  0
   -9.9985  -12.3970   17.7000 C   0  0  0  0  0  0  0  0  0  0  0  0
   -8.8197  -12.3216   17.5614 O   0  0  0  0  0  0  0  0  0  0  0  0
  -10.3323  -13.5203   19.1878 C   0  0  0  0  0  0  0  0  0  0  0  0
  -11.3314  -13.5088   20.9903 C   0  0  0  0  0  0  0  0  0  0  0  0
  -10.9746  -12.7016   21.9168 C   0  0  0  0  0  0  0  0  0  0  0  0
   -9.5603  -12.9824   21.3115 N   0  0  0  0  0  0  0  0  0  0  0  0
   -9.2132  -13.4032   19.8923 N   0  0  0  0  0  0  0  0  0  0  0  0
  -10.6117   -7.7991   14.6038 C   0  0  0  0  0  0  0  0  0  0  0  0
   -9.5639   -2.5875    9.2891 C   0  0  0  0  0  0  0  0  0  0  0  0
  -10.3977   -1.6833    8.2494 C   0  0  0  0  0  0  0  0  0  0  0  0
   -9.0231   -3.7568    8.4258 C   0  0  0  0  0  0  0  0  0  0  0  0
  -12.8267   -0.0227   12.9174 H   0  0  0  0  0  0  0  0  0  0  0  0
  -13.1187    1.0340   11.5421 H   0  0  0  0  0  0  0  0  0  0  0  0
  -14.2550   -0.2956   11.8746 H   0  0  0  0  0  0  0  0  0  0  0  0
  -11.6209   -1.6238   12.7083 H   0  0  0  0  0  0  0  0  0  0  0  0
   -9.2573   -0.6774   10.1344 H   0  0  0  0  0  0  0  0  0  0  0  0
  -10.4655   -0.2725   10.9536 H   0  0  0  0  0  0  0  0  0  0  0  0
   -8.9358   -0.8740   11.7556 H   0  0  0  0  0  0  0  0  0  0  0  0
   -8.6256   -5.8424   15.6444 H   0  0  0  0  0  0  0  0  0  0  0  0
   -7.9748   -5.3588   14.1645 H   0  0  0  0  0  0  0  0  0  0  0  0
   -7.0229   -7.6543   15.1769 H   0  0  0  0  0  0  0  0  0  0  0  0
   -6.9626   -7.8407   13.4554 H   0  0  0  0  0  0  0  0  0  0  0  0
   -8.7304   -9.6017   13.1452 H   0  0  0  0  0  0  0  0  0  0  0  0
   -7.9468  -10.3569   14.4192 H   0  0  0  0  0  0  0  0  0  0  0  0
  -10.4297  -10.4345   13.9075 H   0  0  0  0  0  0  0  0  0  0  0  0
  -12.0175  -11.5273   16.5231 H   0  0  0  0  0  0  0  0  0  0  0  0
  -12.0946  -14.2889   21.2620 H   0  0  0  0  0  0  0  0  0  0  0  0
  -11.2443  -12.2514   22.8780 H   0  0  0  0  0  0  0  0  0  0  0  0
   -8.7228  -12.6405   21.7427 H   0  0  0  0  0  0  0  0  0  0  0  0
   -9.6580   -8.0177   14.1970 H   0  0  0  0  0  0  0  0  0  0  0  0
  -11.7275   -7.8056   14.4381 H   0  0  0  0  0  0  0  0  0  0  0  0
   -8.6441   -2.0085    9.1801 H   0  0  0  0  0  0  0  0  0  0  0  0
  -11.3592   -2.1025    7.9372 H   0  0  0  0  0  0  0  0  0  0  0  0
   -9.8129   -1.5850    7.3233 H   0  0  0  0  0  0  0  0  0  0  0  0
  -10.5438   -0.6570    8.5872 H   0  0  0  0  0  0  0  0  0  0  0  0
   -9.6035   -3.9126    7.5139 H   0  0  0  0  0  0  0  0  0  0  0  0
   -8.0152   -3.5480    8.0519 H   0  0  0  0  0  0  0  0  0  0  0  0
   -8.9694   -4.6347    9.0217 H   0  0  0  0  0  0  0  0  0  0  0  0
  1  2  1  0
  2  3  2  0
  2  4  1  0
  4  5  1  0
  5  6  1  0
  5  7  1  0
  7  8  2  0
  7  9  1  0
  9 10  1  0
 10 11  1  0
 11 12  1  0
 12 13  1  0
 13 14  1  0
 14 15  1  0
 15 16  2  0
 15 17  1  0
 17 18  1  0
 18 19  2  0
 19 20  1  0
 20 21  1  0
 13 22  1  0
  5 23  1  0
 23 24  1  0
 23 25  1  0
 22  9  1  0
 21 17  2  0
  1 26  1  0
  1 27  1  0
  1 28  1  0
  4 29  1  0
  6 30  1  0
  6 31  1  0
  6 32  1  0
 10 33  1  0
 10 34  1  0
 11 35  1  0
 11 36  1  0
 12 37  1  0
 12 38  1  0
 13 39  1  0
 14 40  1  0
 18 41  1  0
 19 42  1  0
 20 43  1  0
 22 44  1  0
 22 45  1  0
 23 46  1  0
 24 47  1  0
 24 48  1  0
 24 49  1  0
 25 50  1  0
 25 51  1  0
 25 52  1  0
M  END
>  <Energy>  (258) 
1825.1803225072022

>  <compound_id>  (258) 
35613

>  <target_id>  (258) 
1

>  <reference_id>  (258) 
99

>  <inspiration_ids>  (258) 
[46, 99]

>  <energy_score>  (258) 
1697.072225257084

>  <distance_score>  (258) 
11.139179028286145

>  <path>  (258) 
/opt/xchem-fragalysis-2/maxwin/BulkDock/SCRATCH/511022/C35613-P99/C35613-P99.minimised.mol

>  <scratch_subdir>  (258) 
/opt/xchem-fragalysis-2/maxwin/BulkDock/SCRATCH/511022/C35613-P99

>  <fragmenstein_runtime>  (258) 
35.0755181312561

>  <fragmenstein_outcome>  (258) 
too moved

>  <fragmenstein_mode>  (258) 
expansion

>  <fragmenstein_error>  (258) 


$$$$
C35614-P46
     RDKit          3D

 52 53  0  0  0  0  0  0  0  0999 V2000
  -12.9348   -1.1994    6.8674 C   0  0  0  0  0  0  0  0  0  0  0  0
  -12.7593   -0.1732    7.9701 C   0  0  0  0  0  0  0  0  0  0  0  0
  -13.2279    0.9216    7.8542 O   0  0  0  0  0  0  0  0  0  0  0  0
  -11.9894   -0.7548    9.0296 N   0  0  0  0  0  0  0  0  0  0  0  0
  -11.4358   -0.1559   10.2901 C   0  0  0  0  0  0  0  0  0  0  0  0
  -10.8209    1.2125    9.9254 C   0  0  0  0  0  0  0  0  0  0  0  0
  -10.2643   -1.2490   10.4091 C   0  0  0  0  0  0  0  0  0  0  0  0
   -9.2341   -0.9866    9.8226 O   0  0  0  0  0  0  0  0  0  0  0  0
  -10.6795   -2.4989   11.1579 N   0  0  0  0  0  0  0  0  0  0  0  0
  -10.3070   -2.3917   12.5934 C   0  0  0  0  0  0  0  0  0  0  0  0
   -9.8335   -3.8337   13.8936 C   0  0  0  0  0  0  0  0  0  0  0  0
   -8.3853   -4.6240   14.1256 C   0  0  0  0  0  0  0  0  0  0  0  0
   -8.2527   -6.2405   15.0953 N   0  0  0  0  0  0  0  0  0  0  0  0
   -7.0861   -6.7784   16.4334 C   0  0  0  0  0  0  0  0  0  0  0  0
   -6.2399   -6.1259   16.9780 O   0  0  0  0  0  0  0  0  0  0  0  0
   -7.1800   -8.3921   17.2200 C   0  0  0  0  0  0  0  0  0  0  0  0
   -6.6125   -9.9060   16.9428 C   0  0  0  0  0  0  0  0  0  0  0  0
   -7.2057  -10.8235   17.8524 C   0  0  0  0  0  0  0  0  0  0  0  0
   -8.1493   -9.7740   18.7945 N   0  0  0  0  0  0  0  0  0  0  0  0
   -7.9228   -8.4054   18.4227 N   0  0  0  0  0  0  0  0  0  0  0  0
   -8.6813   -4.7901   12.6309 C   0  0  0  0  0  0  0  0  0  0  0  0
   -9.8197   -4.1713   11.3399 C   0  0  0  0  0  0  0  0  0  0  0  0
  -12.5409   -0.0307   11.3722 C   0  0  0  0  0  0  0  0  0  0  0  0
  -12.2449    0.9613   12.4942 C   0  0  0  0  0  0  0  0  0  0  0  0
  -13.9333    0.3514   10.8346 C   0  0  0  0  0  0  0  0  0  0  0  0
  -13.6572   -0.8289    6.1342 H   0  0  0  0  0  0  0  0  0  0  0  0
  -13.3139   -2.1407    7.2747 H   0  0  0  0  0  0  0  0  0  0  0  0
  -11.9771   -1.3689    6.3678 H   0  0  0  0  0  0  0  0  0  0  0  0
  -11.6859   -1.6923    8.7465 H   0  0  0  0  0  0  0  0  0  0  0  0
  -11.5942    1.9635    9.7317 H   0  0  0  0  0  0  0  0  0  0  0  0
  -10.1756    1.5877   10.7247 H   0  0  0  0  0  0  0  0  0  0  0  0
  -10.2055    1.1582    9.0191 H   0  0  0  0  0  0  0  0  0  0  0  0
   -9.5790   -1.6159   12.4995 H   0  0  0  0  0  0  0  0  0  0  0  0
  -11.2995   -2.0146   12.8830 H   0  0  0  0  0  0  0  0  0  0  0  0
  -10.0664   -3.5358   14.9222 H   0  0  0  0  0  0  0  0  0  0  0  0
  -10.4813   -4.6072   13.5806 H   0  0  0  0  0  0  0  0  0  0  0  0
   -7.4485   -4.0851   14.1490 H   0  0  0  0  0  0  0  0  0  0  0  0
   -8.7896   -7.0130   14.7741 H   0  0  0  0  0  0  0  0  0  0  0  0
   -5.9029  -10.2252   16.2226 H   0  0  0  0  0  0  0  0  0  0  0  0
   -7.2745  -11.8590   18.1785 H   0  0  0  0  0  0  0  0  0  0  0  0
   -8.9764  -10.0621   19.2799 H   0  0  0  0  0  0  0  0  0  0  0  0
   -9.4033   -5.5025   12.9023 H   0  0  0  0  0  0  0  0  0  0  0  0
   -7.7856   -5.1853   12.2030 H   0  0  0  0  0  0  0  0  0  0  0  0
  -10.5590   -4.9631   11.3123 H   0  0  0  0  0  0  0  0  0  0  0  0
   -9.5224   -4.4275   10.3075 H   0  0  0  0  0  0  0  0  0  0  0  0
  -12.6811   -0.9808   11.8661 H   0  0  0  0  0  0  0  0  0  0  0  0
  -12.0481    1.9720   12.1252 H   0  0  0  0  0  0  0  0  0  0  0  0
  -13.1035    1.0404   13.1733 H   0  0  0  0  0  0  0  0  0  0  0  0
  -11.4224    0.6502   13.1259 H   0  0  0  0  0  0  0  0  0  0  0  0
  -13.9207    1.3293   10.3439 H   0  0  0  0  0  0  0  0  0  0  0  0
  -14.3203   -0.3961   10.1399 H   0  0  0  0  0  0  0  0  0  0  0  0
  -14.6634    0.4065   11.6511 H   0  0  0  0  0  0  0  0  0  0  0  0
  1  2  1  0
  2  3  2  0
  2  4  1  0
  4  5  1  0
  5  6  1  0
  5  7  1  0
  7  8  2  0
  7  9  1  0
  9 10  1  0
 10 11  1  0
 11 12  1  0
 12 13  1  0
 13 14  1  0
 14 15  2  0
 14 16  1  0
 16 17  1  0
 17 18  2  0
 18 19  1  0
 19 20  1  0
 12 21  1  0
 21 22  1  0
  5 23  1  0
 23 24  1  0
 23 25  1  0
 22  9  1  0
 20 16  2  0
  1 26  1  0
  1 27  1  0
  1 28  1  0
  4 29  1  0
  6 30  1  0
  6 31  1  0
  6 32  1  0
 10 33  1  0
 10 34  1  0
 11 35  1  0
 11 36  1  0
 12 37  1  0
 13 38  1  0
 17 39  1  0
 18 40  1  0
 19 41  1  0
 21 42  1  0
 21 43  1  0
 22 44  1  0
 22 45  1  0
 23 46  1  0
 24 47  1  0
 24 48  1  0
 24 49  1  0
 25 50  1  0
 25 51  1  0
 25 52  1  0
M  END
>  <Energy>  (259) 
585.56158451229896

>  <compound_id>  (259) 
35614

>  <target_id>  (259) 
1

>  <reference_id>  (259) 
46

>  <inspiration_ids>  (259) 
[46, 99]

>  <energy_score>  (259) 
476.67713513128547

>  <distance_score>  (259) 
13.268440233866304

>  <path>  (259) 
/opt/xchem-fragalysis-2/maxwin/BulkDock/SCRATCH/511022/C35614-P46/C35614-P46.minimised.mol

>  <scratch_subdir>  (259) 
/opt/xchem-fragalysis-2/maxwin/BulkDock/SCRATCH/511022/C35614-P46

>  <fragmenstein_runtime>  (259) 
55.426053524017334

>  <fragmenstein_outcome>  (259) 
too moved

>  <fragmenstein_mode>  (259) 
expansion

>  <fragmenstein_error>  (259) 


$$$$
C35614-P99
     RDKit          3D

 52 53  0  0  0  0  0  0  0  0999 V2000
   -6.3234    4.8318    7.5242 C   0  0  0  0  0  0  0  0  0  0  0  0
   -6.0187    3.4423    7.0001 C   0  0  0  0  0  0  0  0  0  0  0  0
   -4.8837    3.0655    6.9375 O   0  0  0  0  0  0  0  0  0  0  0  0
   -7.2362    2.8140    6.5883 N   0  0  0  0  0  0  0  0  0  0  0  0
   -7.4979    1.4593    6.0426 C   0  0  0  0  0  0  0  0  0  0  0  0
   -6.4242    1.1857    4.9800 C   0  0  0  0  0  0  0  0  0  0  0  0
   -8.9468    1.6660    5.3745 C   0  0  0  0  0  0  0  0  0  0  0  0
   -9.5085    2.7172    5.5806 O   0  0  0  0  0  0  0  0  0  0  0  0
   -9.3955    0.4933    4.6922 N   0  0  0  0  0  0  0  0  0  0  0  0
   -9.0271    0.5682    3.2217 C   0  0  0  0  0  0  0  0  0  0  0  0
   -8.6124   -0.8148    2.6798 C   0  0  0  0  0  0  0  0  0  0  0  0
   -9.6809   -1.8508    3.0179 C   0  0  0  0  0  0  0  0  0  0  0  0
   -9.3958   -2.6147    4.2082 N   0  0  0  0  0  0  0  0  0  0  0  0
   -8.2270   -3.3412    4.6010 C   0  0  0  0  0  0  0  0  0  0  0  0
   -7.2133   -3.5670    4.0073 O   0  0  0  0  0  0  0  0  0  0  0  0
   -8.3421   -3.7944    6.0358 C   0  0  0  0  0  0  0  0  0  0  0  0
   -9.3590   -3.5226    7.0005 C   0  0  0  0  0  0  0  0  0  0  0  0
   -8.8918   -4.0317    8.1731 C   0  0  0  0  0  0  0  0  0  0  0  0
   -7.7352   -4.6260    7.8865 N   0  0  0  0  0  0  0  0  0  0  0  0
   -7.3659   -4.5166    6.6238 N   0  0  0  0  0  0  0  0  0  0  0  0
  -10.9680   -1.0859    3.2169 C   0  0  0  0  0  0  0  0  0  0  0  0
  -10.7456    0.1470    4.1106 C   0  0  0  0  0  0  0  0  0  0  0  0
   -7.4706    0.4245    7.2361 C   0  0  0  0  0  0  0  0  0  0  0  0
   -8.8506    0.0298    7.7763 C   0  0  0  0  0  0  0  0  0  0  0  0
   -6.6507   -0.8405    6.9726 C   0  0  0  0  0  0  0  0  0  0  0  0
   -5.4532    5.2163    8.0647 H   0  0  0  0  0  0  0  0  0  0  0  0
   -6.5449    5.4957    6.6842 H   0  0  0  0  0  0  0  0  0  0  0  0
   -7.1713    4.8148    8.2144 H   0  0  0  0  0  0  0  0  0  0  0  0
   -8.0227    3.3948    6.8735 H   0  0  0  0  0  0  0  0  0  0  0  0
   -6.5775    0.2357    4.4668 H   0  0  0  0  0  0  0  0  0  0  0  0
   -6.3990    1.9800    4.2251 H   0  0  0  0  0  0  0  0  0  0  0  0
   -5.4258    1.1393    5.4164 H   0  0  0  0  0  0  0  0  0  0  0  0
   -8.1309    1.1931    3.1395 H   0  0  0  0  0  0  0  0  0  0  0  0
   -9.6987    1.1384    2.5519 H   0  0  0  0  0  0  0  0  0  0  0  0
   -8.5126   -0.7290    1.5908 H   0  0  0  0  0  0  0  0  0  0  0  0
   -7.6307   -1.1086    3.0613 H   0  0  0  0  0  0  0  0  0  0  0  0
   -9.7659   -2.5794    2.2050 H   0  0  0  0  0  0  0  0  0  0  0  0
  -10.0948   -2.6974    4.9353 H   0  0  0  0  0  0  0  0  0  0  0  0
  -10.2864   -2.9794    6.8908 H   0  0  0  0  0  0  0  0  0  0  0  0
   -9.2879   -4.0586    9.1589 H   0  0  0  0  0  0  0  0  0  0  0  0
   -7.1202   -5.0825    8.5407 H   0  0  0  0  0  0  0  0  0  0  0  0
  -11.3377   -0.7412    2.2416 H   0  0  0  0  0  0  0  0  0  0  0  0
  -11.7662   -1.7098    3.6307 H   0  0  0  0  0  0  0  0  0  0  0  0
  -11.3158   -0.0658    5.0293 H   0  0  0  0  0  0  0  0  0  0  0  0
  -11.2766    1.0451    3.7490 H   0  0  0  0  0  0  0  0  0  0  0  0
   -6.9605    0.9143    8.0785 H   0  0  0  0  0  0  0  0  0  0  0  0
   -9.4420    0.9173    8.0241 H   0  0  0  0  0  0  0  0  0  0  0  0
   -9.4131   -0.5777    7.0642 H   0  0  0  0  0  0  0  0  0  0  0  0
   -8.7501   -0.5558    8.6959 H   0  0  0  0  0  0  0  0  0  0  0  0
   -6.9951   -1.3519    6.0737 H   0  0  0  0  0  0  0  0  0  0  0  0
   -5.5880   -0.6079    6.8510 H   0  0  0  0  0  0  0  0  0  0  0  0
   -6.7227   -1.5357    7.8149 H   0  0  0  0  0  0  0  0  0  0  0  0
  1  2  1  0
  2  3  2  0
  2  4  1  0
  4  5  1  0
  5  6  1  0
  5  7  1  0
  7  8  2  0
  7  9  1  0
  9 10  1  0
 10 11  1  0
 11 12  1  0
 12 13  1  0
 13 14  1  0
 14 15  2  0
 14 16  1  0
 16 17  1  0
 17 18  2  0
 18 19  1  0
 19 20  1  0
 12 21  1  0
 21 22  1  0
  5 23  1  0
 23 24  1  0
 23 25  1  0
 22  9  1  0
 20 16  2  0
  1 26  1  0
  1 27  1  0
  1 28  1  0
  4 29  1  0
  6 30  1  0
  6 31  1  0
  6 32  1  0
 10 33  1  0
 10 34  1  0
 11 35  1  0
 11 36  1  0
 12 37  1  0
 13 38  1  0
 17 39  1  0
 18 40  1  0
 19 41  1  0
 21 42  1  0
 21 43  1  0
 22 44  1  0
 22 45  1  0
 23 46  1  0
 24 47  1  0
 24 48  1  0
 24 49  1  0
 25 50  1  0
 25 51  1  0
 25 52  1  0
M  END
>  <Energy>  (260) 
143.67900519254147

>  <compound_id>  (260) 
35614

>  <target_id>  (260) 
1

>  <reference_id>  (260) 
99

>  <inspiration_ids>  (260) 
[46, 99]

>  <energy_score>  (260) 
34.794555811533655

>  <distance_score>  (260) 
19.692150846984674

>  <path>  (260) 
/opt/xchem-fragalysis-2/maxwin/BulkDock/SCRATCH/511022/C35614-P99/C35614-P99.minimised.mol

>  <scratch_subdir>  (260) 
/opt/xchem-fragalysis-2/maxwin/BulkDock/SCRATCH/511022/C35614-P99

>  <fragmenstein_runtime>  (260) 
55.63258481025696

>  <fragmenstein_outcome>  (260) 
too moved

>  <fragmenstein_mode>  (260) 
expansion

>  <fragmenstein_error>  (260) 


$$$$
C15325-P46
     RDKit          3D

 41 42  0  0  0  0  0  0  0  0999 V2000
  -11.6751  -24.2143   28.5965 C   0  0  0  0  0  0  0  0  0  0  0  0
  -11.9001  -22.9001   28.4546 C   0  0  0  0  0  0  0  0  0  0  0  0
  -12.0954  -21.9994   29.6138 C   0  0  0  0  0  0  0  0  0  0  0  0
  -11.8998  -20.6096   29.2913 N   0  0  0  0  0  0  0  0  0  0  0  0
  -12.8840  -19.4824   29.1594 C   0  0  0  0  0  0  0  0  0  0  0  0
  -14.0909  -19.4945   29.2130 O   0  0  0  0  0  0  0  0  0  0  0  0
  -12.2364  -17.6117   29.0203 C   0  0  0  0  0  0  0  0  0  0  0  0
  -12.9581  -15.8572   29.0230 N   0  0  0  0  0  0  0  0  0  0  0  0
  -12.3530  -14.8714   28.0254 C   0  0  0  0  0  0  0  0  0  0  0  0
  -11.7920  -13.5447   28.5518 C   0  0  0  0  0  0  0  0  0  0  0  0
  -12.8691  -12.7355   29.2466 C   0  0  0  0  0  0  0  0  0  0  0  0
  -13.7600  -11.9460   28.2242 C   0  0  0  0  0  0  0  0  0  0  0  0
  -13.1850  -10.6649   27.6143 C   0  0  0  0  0  0  0  0  0  0  0  0
  -13.6564   -9.3594   27.6705 C   0  0  0  0  0  0  0  0  0  0  0  0
  -12.7397   -8.5736   26.9547 C   0  0  0  0  0  0  0  0  0  0  0  0
  -11.7723   -9.3230   26.4429 N   0  0  0  0  0  0  0  0  0  0  0  0
  -12.0899  -10.5853   26.7890 N   0  0  0  0  0  0  0  0  0  0  0  0
  -13.6682  -13.7295   30.1450 C   0  0  0  0  0  0  0  0  0  0  0  0
  -12.9866  -15.1234   30.3314 C   0  0  0  0  0  0  0  0  0  0  0  0
  -11.6043  -24.6817   29.5753 H   0  0  0  0  0  0  0  0  0  0  0  0
  -11.5477  -24.8488   27.7242 H   0  0  0  0  0  0  0  0  0  0  0  0
  -11.9562  -22.4843   27.4522 H   0  0  0  0  0  0  0  0  0  0  0  0
  -13.1000  -22.1089   30.0197 H   0  0  0  0  0  0  0  0  0  0  0  0
  -11.3920  -22.2316   30.4185 H   0  0  0  0  0  0  0  0  0  0  0  0
  -10.9698  -20.2609   29.1090 H   0  0  0  0  0  0  0  0  0  0  0  0
  -11.9747  -17.2029   29.9497 H   0  0  0  0  0  0  0  0  0  0  0  0
  -11.3972  -17.6641   28.3821 H   0  0  0  0  0  0  0  0  0  0  0  0
  -13.1384  -14.6516   27.2920 H   0  0  0  0  0  0  0  0  0  0  0  0
  -11.5092  -15.2750   27.4641 H   0  0  0  0  0  0  0  0  0  0  0  0
  -10.9629  -13.7215   29.2468 H   0  0  0  0  0  0  0  0  0  0  0  0
  -11.3461  -12.9920   27.7216 H   0  0  0  0  0  0  0  0  0  0  0  0
  -12.3813  -11.9987   29.8985 H   0  0  0  0  0  0  0  0  0  0  0  0
  -14.0723  -12.6012   27.4025 H   0  0  0  0  0  0  0  0  0  0  0  0
  -14.6824  -11.6559   28.7459 H   0  0  0  0  0  0  0  0  0  0  0  0
  -14.5398   -9.0221   28.1945 H   0  0  0  0  0  0  0  0  0  0  0  0
  -12.7393   -7.5050   26.7865 H   0  0  0  0  0  0  0  0  0  0  0  0
  -11.4993  -11.3329   26.4422 H   0  0  0  0  0  0  0  0  0  0  0  0
  -14.6760  -13.8819   29.7369 H   0  0  0  0  0  0  0  0  0  0  0  0
  -13.8068  -13.2702   31.1317 H   0  0  0  0  0  0  0  0  0  0  0  0
  -11.9867  -14.9808   30.7541 H   0  0  0  0  0  0  0  0  0  0  0  0
  -13.5460  -15.6256   31.1060 H   0  0  0  0  0  0  0  0  0  0  0  0
  1  2  2  0
  2  3  1  0
  3  4  1  0
  4  5  1  0
  5  6  2  0
  5  7  1  0
  7  8  1  0
  8  9  1  0
  9 10  1  0
 10 11  1  0
 11 12  1  0
 12 13  1  0
 13 14  2  0
 14 15  1  0
 15 16  2  0
 16 17  1  0
 11 18  1  0
 18 19  1  0
 19  8  1  0
 17 13  1  0
  1 20  1  0
  1 21  1  0
  2 22  1  0
  3 23  1  0
  3 24  1  0
  4 25  1  0
  7 26  1  0
  7 27  1  0
  9 28  1  0
  9 29  1  0
 10 30  1  0
 10 31  1  0
 11 32  1  0
 12 33  1  0
 12 34  1  0
 14 35  1  0
 15 36  1  0
 17 37  1  0
 18 38  1  0
 18 39  1  0
 19 40  1  0
 19 41  1  0
M  END
>  <Energy>  (261) 
204.41794956549734

>  <compound_id>  (261) 
15325

>  <target_id>  (261) 
1

>  <reference_id>  (261) 
46

>  <inspiration_ids>  (261) 
[46, 99]

>  <energy_score>  (261) 
124.8190572620033

>  <distance_score>  (261) 
13.182476930170143

>  <path>  (261) 
/opt/xchem-fragalysis-2/maxwin/BulkDock/SCRATCH/511022/C15325-P46/C15325-P46.minimised.mol

>  <scratch_subdir>  (261) 
/opt/xchem-fragalysis-2/maxwin/BulkDock/SCRATCH/511022/C15325-P46

>  <fragmenstein_runtime>  (261) 
19.71182870864868

>  <fragmenstein_outcome>  (261) 
too moved

>  <fragmenstein_mode>  (261) 
expansion

>  <fragmenstein_error>  (261) 


$$$$
C15325-P99
     RDKit          3D

 41 42  0  0  0  0  0  0  0  0999 V2000
  -15.7678  -22.5386   32.6483 C   0  0  0  0  0  0  0  0  0  0  0  0
  -15.1883  -21.7719   31.7102 C   0  0  0  0  0  0  0  0  0  0  0  0
  -14.4045  -22.3442   30.5071 C   0  0  0  0  0  0  0  0  0  0  0  0
  -13.0275  -21.3188   29.8852 N   0  0  0  0  0  0  0  0  0  0  0  0
  -12.9857  -19.7577   29.1647 C   0  0  0  0  0  0  0  0  0  0  0  0
  -14.0339  -19.3828   29.0037 O   0  0  0  0  0  0  0  0  0  0  0  0
  -11.6686  -18.2803   28.6452 C   0  0  0  0  0  0  0  0  0  0  0  0
  -10.8810  -16.9703   27.3511 N   0  0  0  0  0  0  0  0  0  0  0  0
  -11.6169  -15.4135   26.9706 C   0  0  0  0  0  0  0  0  0  0  0  0
  -12.3906  -15.1666   25.2592 C   0  0  0  0  0  0  0  0  0  0  0  0
  -11.7064  -15.5962   23.4107 C   0  0  0  0  0  0  0  0  0  0  0  0
  -10.9927  -13.9968   22.2277 C   0  0  0  0  0  0  0  0  0  0  0  0
   -9.5316  -13.2683   20.9887 C   0  0  0  0  0  0  0  0  0  0  0  0
   -8.4184  -13.6261   19.7288 C   0  0  0  0  0  0  0  0  0  0  0  0
   -8.4380  -12.7176   18.6134 C   0  0  0  0  0  0  0  0  0  0  0  0
   -9.7330  -12.5736   18.5691 N   0  0  0  0  0  0  0  0  0  0  0  0
   -9.9007  -13.7140   19.3786 N   0  0  0  0  0  0  0  0  0  0  0  0
  -10.6579  -17.0834   24.2736 C   0  0  0  0  0  0  0  0  0  0  0  0
   -9.9280  -16.9813   26.0814 C   0  0  0  0  0  0  0  0  0  0  0  0
  -15.6576  -23.6193   32.6478 H   0  0  0  0  0  0  0  0  0  0  0  0
  -16.3665  -22.0997   33.4392 H   0  0  0  0  0  0  0  0  0  0  0  0
  -15.4037  -20.7109   31.7206 H   0  0  0  0  0  0  0  0  0  0  0  0
  -14.4146  -23.4410   30.3897 H   0  0  0  0  0  0  0  0  0  0  0  0
  -15.2974  -22.1938   29.9081 H   0  0  0  0  0  0  0  0  0  0  0  0
  -12.0697  -21.5743   30.0881 H   0  0  0  0  0  0  0  0  0  0  0  0
  -12.1550  -17.4593   29.1464 H   0  0  0  0  0  0  0  0  0  0  0  0
  -10.8578  -18.5358   29.2451 H   0  0  0  0  0  0  0  0  0  0  0  0
  -10.8450  -14.6672   27.1686 H   0  0  0  0  0  0  0  0  0  0  0  0
  -12.4011  -15.2044   27.7185 H   0  0  0  0  0  0  0  0  0  0  0  0
  -13.4510  -15.4381   25.2675 H   0  0  0  0  0  0  0  0  0  0  0  0
  -12.4870  -14.0867   25.4829 H   0  0  0  0  0  0  0  0  0  0  0  0
  -12.5048  -16.1372   22.8836 H   0  0  0  0  0  0  0  0  0  0  0  0
  -11.4726  -13.7559   21.2646 H   0  0  0  0  0  0  0  0  0  0  0  0
  -11.2290  -13.0911   22.8368 H   0  0  0  0  0  0  0  0  0  0  0  0
   -7.3699  -13.6327   19.8920 H   0  0  0  0  0  0  0  0  0  0  0  0
   -7.6686  -12.3388   17.9558 H   0  0  0  0  0  0  0  0  0  0  0  0
  -10.7236  -14.2817   19.3474 H   0  0  0  0  0  0  0  0  0  0  0  0
   -9.6062  -17.1251   24.0809 H   0  0  0  0  0  0  0  0  0  0  0  0
  -11.2697  -17.9349   23.9878 H   0  0  0  0  0  0  0  0  0  0  0  0
   -9.4028  -16.0217   26.0964 H   0  0  0  0  0  0  0  0  0  0  0  0
   -9.0584  -17.5837   26.2852 H   0  0  0  0  0  0  0  0  0  0  0  0
  1  2  2  0
  2  3  1  0
  3  4  1  0
  4  5  1  0
  5  6  2  0
  5  7  1  0
  7  8  1  0
  8  9  1  0
  9 10  1  0
 10 11  1  0
 11 12  1  0
 12 13  1  0
 13 14  2  0
 14 15  1  0
 15 16  2  0
 16 17  1  0
 11 18  1  0
 18 19  1  0
 19  8  1  0
 17 13  1  0
  1 20  1  0
  1 21  1  0
  2 22  1  0
  3 23  1  0
  3 24  1  0
  4 25  1  0
  7 26  1  0
  7 27  1  0
  9 28  1  0
  9 29  1  0
 10 30  1  0
 10 31  1  0
 11 32  1  0
 12 33  1  0
 12 34  1  0
 14 35  1  0
 15 36  1  0
 17 37  1  0
 18 38  1  0
 18 39  1  0
 19 40  1  0
 19 41  1  0
M  END
>  <Energy>  (262) 
1050.3828424890689

>  <compound_id>  (262) 
15325

>  <target_id>  (262) 
1

>  <reference_id>  (262) 
99

>  <inspiration_ids>  (262) 
[46, 99]

>  <energy_score>  (262) 
970.7839501855784

>  <distance_score>  (262) 
10.63603278571946

>  <path>  (262) 
/opt/xchem-fragalysis-2/maxwin/BulkDock/SCRATCH/511022/C15325-P99/C15325-P99.minimised.mol

>  <scratch_subdir>  (262) 
/opt/xchem-fragalysis-2/maxwin/BulkDock/SCRATCH/511022/C15325-P99

>  <fragmenstein_runtime>  (262) 
18.950722217559814

>  <fragmenstein_outcome>  (262) 
too moved

>  <fragmenstein_mode>  (262) 
expansion

>  <fragmenstein_error>  (262) 


$$$$
C14928-P186
     RDKit          3D

 34 35  0  0  0  0  0  0  0  0999 V2000
    2.2131  -10.6166   23.6756 C   0  0  0  0  0  0  0  0  0  0  0  0
    2.0758   -9.2275   24.0317 O   0  0  0  0  0  0  0  0  0  0  0  0
    2.5754   -8.7124   25.3496 C   0  0  0  0  0  0  0  0  0  0  0  0
    1.4196   -8.2149   26.7910 C   0  0  0  0  0  0  0  0  0  0  0  0
    0.9165   -7.9159   28.5172 N   0  0  0  0  0  0  0  0  0  0  0  0
   -0.3748   -8.7267   28.1525 C   0  0  0  0  0  0  0  0  0  0  0  0
   -0.8252   -8.1581   29.8539 C   0  0  0  0  0  0  0  0  0  0  0  0
   -0.6563   -6.7941   30.2094 C   0  0  0  0  0  0  0  0  0  0  0  0
   -0.7803   -6.3505   31.5258 C   0  0  0  0  0  0  0  0  0  0  0  0
   -1.1819   -7.2513   32.4703 C   0  0  0  0  0  0  0  0  0  0  0  0
   -1.4739   -8.5211   32.0196 C   0  0  0  0  0  0  0  0  0  0  0  0
   -1.2841   -9.0213   30.7638 N   0  0  0  0  0  0  0  0  0  0  0  0
    1.7796   -8.1813   29.1753 C   0  0  0  0  0  0  0  0  0  0  0  0
    2.0350   -9.1497   29.6902 O   0  0  0  0  0  0  0  0  0  0  0  0
    2.6102   -6.7021   29.1320 C   0  0  0  0  0  0  0  0  0  0  0  0
    2.2228   -5.4827   29.6917 C   0  0  0  0  0  0  0  0  0  0  0  0
    2.9334   -4.4003   29.1111 C   0  0  0  0  0  0  0  0  0  0  0  0
    2.5437   -2.7623   29.3972 Cl  0  0  0  0  0  0  0  0  0  0  0  0
    3.9301   -4.7212   28.2968 N   0  0  0  0  0  0  0  0  0  0  0  0
    4.0078   -6.3759   28.1804 S   0  0  0  0  0  0  0  0  0  0  0  0
    3.2763  -10.8627   23.6119 H   0  0  0  0  0  0  0  0  0  0  0  0
    1.7581  -10.7567   22.6918 H   0  0  0  0  0  0  0  0  0  0  0  0
    1.7197  -11.2762   24.3884 H   0  0  0  0  0  0  0  0  0  0  0  0
    2.9883   -7.7309   25.0600 H   0  0  0  0  0  0  0  0  0  0  0  0
    3.5036   -9.1773   25.6518 H   0  0  0  0  0  0  0  0  0  0  0  0
    2.2664   -8.7107   27.2378 H   0  0  0  0  0  0  0  0  0  0  0  0
    1.9439   -7.2283   26.7452 H   0  0  0  0  0  0  0  0  0  0  0  0
   -1.2546   -8.1009   27.9961 H   0  0  0  0  0  0  0  0  0  0  0  0
   -0.3973   -9.7337   28.5497 H   0  0  0  0  0  0  0  0  0  0  0  0
   -0.4113   -6.0512   29.4586 H   0  0  0  0  0  0  0  0  0  0  0  0
   -0.6079   -5.3107   31.7865 H   0  0  0  0  0  0  0  0  0  0  0  0
   -1.3414   -6.9711   33.5044 H   0  0  0  0  0  0  0  0  0  0  0  0
   -1.9375   -9.1902   32.7176 H   0  0  0  0  0  0  0  0  0  0  0  0
    1.4253   -5.3452   30.3966 H   0  0  0  0  0  0  0  0  0  0  0  0
  1  2  1  0
  2  3  1  0
  3  4  1  0
  4  5  1  0
  5  6  1  0
  6  7  1  0
  7  8  2  0
  8  9  1  0
  9 10  2  0
 10 11  1  0
 11 12  2  0
  5 13  1  0
 13 14  2  0
 13 15  1  0
 15 16  2  0
 16 17  1  0
 17 18  1  0
 17 19  2  0
 19 20  1  0
 12  7  1  0
 20 15  1  0
  1 21  1  0
  1 22  1  0
  1 23  1  0
  3 24  1  0
  3 25  1  0
  4 26  1  0
  4 27  1  0
  6 28  1  0
  6 29  1  0
  8 30  1  0
  9 31  1  0
 10 32  1  0
 11 33  1  0
 16 34  1  0
M  END
>  <Energy>  (263) 
400.41776049195596

>  <compound_id>  (263) 
14928

>  <target_id>  (263) 
1

>  <reference_id>  (263) 
186

>  <inspiration_ids>  (263) 
[186, 48]

>  <energy_score>  (263) 
333.853108130735

>  <distance_score>  (263) 
12.799492659592534

>  <path>  (263) 
/opt/xchem-fragalysis-2/maxwin/BulkDock/SCRATCH/511022/C14928-P186/C14928-P186.minimised.mol

>  <scratch_subdir>  (263) 
/opt/xchem-fragalysis-2/maxwin/BulkDock/SCRATCH/511022/C14928-P186

>  <fragmenstein_runtime>  (263) 
13.562424182891846

>  <fragmenstein_outcome>  (263) 
too moved

>  <fragmenstein_mode>  (263) 
expansion

>  <fragmenstein_error>  (263) 


$$$$
C14928-P48
     RDKit          3D

 34 35  0  0  0  0  0  0  0  0999 V2000
   -7.6970  -18.4414   21.6506 C   0  0  0  0  0  0  0  0  0  0  0  0
   -7.8623  -17.0499   21.9741 O   0  0  0  0  0  0  0  0  0  0  0  0
   -7.3715  -16.5551   23.5176 C   0  0  0  0  0  0  0  0  0  0  0  0
   -6.5405  -14.5226   23.8032 C   0  0  0  0  0  0  0  0  0  0  0  0
   -6.7156  -12.6108   22.8920 N   0  0  0  0  0  0  0  0  0  0  0  0
   -5.5850  -12.4732   24.4214 C   0  0  0  0  0  0  0  0  0  0  0  0
   -3.6431  -12.3187   24.9691 C   0  0  0  0  0  0  0  0  0  0  0  0
   -2.5325  -13.2578   25.6794 C   0  0  0  0  0  0  0  0  0  0  0  0
   -2.2274  -13.4757   27.0125 C   0  0  0  0  0  0  0  0  0  0  0  0
   -2.6418  -12.3600   27.8557 C   0  0  0  0  0  0  0  0  0  0  0  0
   -3.6670  -12.0805   27.2394 C   0  0  0  0  0  0  0  0  0  0  0  0
   -3.1895  -11.8778   26.0481 N   0  0  0  0  0  0  0  0  0  0  0  0
   -6.3913  -12.1037   21.0442 C   0  0  0  0  0  0  0  0  0  0  0  0
   -5.2595  -11.7210   20.7789 O   0  0  0  0  0  0  0  0  0  0  0  0
   -7.3827  -12.2570   19.3992 C   0  0  0  0  0  0  0  0  0  0  0  0
   -7.9215  -11.2288   18.5436 C   0  0  0  0  0  0  0  0  0  0  0  0
   -8.4349  -11.6091   17.3260 C   0  0  0  0  0  0  0  0  0  0  0  0
   -8.7579  -10.4284   16.1515 Cl  0  0  0  0  0  0  0  0  0  0  0  0
   -8.8431  -12.8607   17.2910 N   0  0  0  0  0  0  0  0  0  0  0  0
   -8.8569  -13.3541   18.9263 S   0  0  0  0  0  0  0  0  0  0  0  0
   -6.6383  -18.6581   21.4977 H   0  0  0  0  0  0  0  0  0  0  0  0
   -8.1122  -19.0758   22.4358 H   0  0  0  0  0  0  0  0  0  0  0  0
   -8.2270  -18.6350   20.7145 H   0  0  0  0  0  0  0  0  0  0  0  0
   -7.0008  -17.4148   24.0797 H   0  0  0  0  0  0  0  0  0  0  0  0
   -6.5061  -17.3271   23.2200 H   0  0  0  0  0  0  0  0  0  0  0  0
   -7.1316  -14.6163   24.7822 H   0  0  0  0  0  0  0  0  0  0  0  0
   -5.4118  -14.7923   23.7371 H   0  0  0  0  0  0  0  0  0  0  0  0
   -5.0914  -13.2624   23.9744 H   0  0  0  0  0  0  0  0  0  0  0  0
   -6.2620  -12.3274   25.2683 H   0  0  0  0  0  0  0  0  0  0  0  0
   -1.5319  -13.1494   25.2362 H   0  0  0  0  0  0  0  0  0  0  0  0
   -1.7026  -14.3359   27.3968 H   0  0  0  0  0  0  0  0  0  0  0  0
   -2.6024  -12.3384   28.9399 H   0  0  0  0  0  0  0  0  0  0  0  0
   -4.6788  -12.0086   27.5591 H   0  0  0  0  0  0  0  0  0  0  0  0
   -8.1042  -10.2158   18.8439 H   0  0  0  0  0  0  0  0  0  0  0  0
  1  2  1  0
  2  3  1  0
  3  4  1  0
  4  5  1  0
  5  6  1  0
  6  7  1  0
  7  8  2  0
  8  9  1  0
  9 10  2  0
 10 11  1  0
 11 12  2  0
  5 13  1  0
 13 14  2  0
 13 15  1  0
 15 16  2  0
 16 17  1  0
 17 18  1  0
 17 19  2  0
 19 20  1  0
 12  7  1  0
 20 15  1  0
  1 21  1  0
  1 22  1  0
  1 23  1  0
  3 24  1  0
  3 25  1  0
  4 26  1  0
  4 27  1  0
  6 28  1  0
  6 29  1  0
  8 30  1  0
  9 31  1  0
 10 32  1  0
 11 33  1  0
 16 34  1  0
M  END
>  <Energy>  (264) 
1150.4894271096041

>  <compound_id>  (264) 
14928

>  <target_id>  (264) 
1

>  <reference_id>  (264) 
48

>  <inspiration_ids>  (264) 
[186, 48]

>  <energy_score>  (264) 
1083.924774748379

>  <distance_score>  (264) 
14.07805524162312

>  <path>  (264) 
/opt/xchem-fragalysis-2/maxwin/BulkDock/SCRATCH/511022/C14928-P48/C14928-P48.minimised.mol

>  <scratch_subdir>  (264) 
/opt/xchem-fragalysis-2/maxwin/BulkDock/SCRATCH/511022/C14928-P48

>  <fragmenstein_runtime>  (264) 
13.219412565231323

>  <fragmenstein_outcome>  (264) 
too moved

>  <fragmenstein_mode>  (264) 
expansion

>  <fragmenstein_error>  (264) 


$$$$
C76325-P107
     RDKit          3D

 45 49  0  0  0  0  0  0  0  0999 V2000
   -5.9338  -18.6611   33.8412 C   0  0  0  0  0  0  0  0  0  0  0  0
   -7.3970  -18.8602   33.9727 C   0  0  0  0  0  0  0  0  0  0  0  0
   -8.3695  -17.9811   33.8895 N   0  0  0  0  0  0  0  0  0  0  0  0
   -8.0075  -16.7348   33.4527 C   0  0  0  0  0  0  0  0  0  0  0  0
   -8.5452  -15.6628   32.7082 N   0  0  0  0  0  0  0  0  0  0  0  0
   -7.6097  -14.4585   32.7225 C   0  0  0  0  0  0  0  0  0  0  0  0
   -6.6484  -13.0691   31.5835 C   0  0  0  0  0  0  0  0  0  0  0  0
   -5.6675  -11.3474   31.4293 N   0  0  0  0  0  0  0  0  0  0  0  0
   -6.3550  -10.1011   30.4365 C   0  0  0  0  0  0  0  0  0  0  0  0
   -5.4828   -8.6182   31.1097 C   0  0  0  0  0  0  0  0  0  0  0  0
   -4.2157   -8.8253   31.6707 C   0  0  0  0  0  0  0  0  0  0  0  0
   -4.5235  -10.1109   32.3467 C   0  0  0  0  0  0  0  0  0  0  0  0
   -2.7257   -9.6685   32.6911 C   0  0  0  0  0  0  0  0  0  0  0  0
   -1.8492   -9.4043   31.6086 C   0  0  0  0  0  0  0  0  0  0  0  0
   -1.1244   -8.1732   31.4608 C   0  0  0  0  0  0  0  0  0  0  0  0
   -1.0559   -7.2720   32.4984 C   0  0  0  0  0  0  0  0  0  0  0  0
   -1.6766   -7.6098   33.7026 C   0  0  0  0  0  0  0  0  0  0  0  0
   -2.4998   -8.7860   33.8179 C   0  0  0  0  0  0  0  0  0  0  0  0
   -1.6729   -6.7396   34.7643 O   0  0  0  0  0  0  0  0  0  0  0  0
   -0.6702   -5.7218   34.6340 C   0  0  0  0  0  0  0  0  0  0  0  0
   -0.6362   -5.1211   33.2423 C   0  0  0  0  0  0  0  0  0  0  0  0
   -0.3797   -6.1112   32.2467 O   0  0  0  0  0  0  0  0  0  0  0  0
   -6.8575  -15.2623   34.0326 C   0  0  0  0  0  0  0  0  0  0  0  0
   -6.6765  -16.4973   33.5487 N   0  0  0  0  0  0  0  0  0  0  0  0
   -5.6354  -17.3746   33.7148 C   0  0  0  0  0  0  0  0  0  0  0  0
   -5.2437  -19.4789   33.9651 H   0  0  0  0  0  0  0  0  0  0  0  0
   -7.6283  -19.9160   34.1535 H   0  0  0  0  0  0  0  0  0  0  0  0
   -7.0100  -13.6561   30.7039 H   0  0  0  0  0  0  0  0  0  0  0  0
   -5.8198  -13.4905   30.9586 H   0  0  0  0  0  0  0  0  0  0  0  0
   -6.3215  -10.1050   29.3804 H   0  0  0  0  0  0  0  0  0  0  0  0
   -7.4385  -10.1163   30.3673 H   0  0  0  0  0  0  0  0  0  0  0  0
   -5.2371   -8.1981   32.1455 H   0  0  0  0  0  0  0  0  0  0  0  0
   -6.0903   -7.6815   31.4269 H   0  0  0  0  0  0  0  0  0  0  0  0
   -3.5964   -8.5128   30.8978 H   0  0  0  0  0  0  0  0  0  0  0  0
   -3.7288   -8.0042   32.1870 H   0  0  0  0  0  0  0  0  0  0  0  0
   -5.0908   -9.8593   33.2586 H   0  0  0  0  0  0  0  0  0  0  0  0
   -1.8397  -10.1227   30.7881 H   0  0  0  0  0  0  0  0  0  0  0  0
   -0.5774   -7.9735   30.5407 H   0  0  0  0  0  0  0  0  0  0  0  0
   -3.1601   -8.8672   34.6823 H   0  0  0  0  0  0  0  0  0  0  0  0
    0.2985   -6.1689   34.8903 H   0  0  0  0  0  0  0  0  0  0  0  0
   -0.8859   -4.9466   35.3763 H   0  0  0  0  0  0  0  0  0  0  0  0
   -1.5707   -4.6214   32.9818 H   0  0  0  0  0  0  0  0  0  0  0  0
    0.1612   -4.3735   33.1795 H   0  0  0  0  0  0  0  0  0  0  0  0
   -7.2489  -15.3592   35.0501 H   0  0  0  0  0  0  0  0  0  0  0  0
   -4.6322  -16.9747   33.7557 H   0  0  0  0  0  0  0  0  0  0  0  0
  1  2  1  0
  2  3  2  0
  3  4  1  0
  4  5  2  0
  5  6  1  0
  6  7  1  0
  7  8  1  0
  8  9  1  0
  9 10  1  0
 10 11  1  0
 11 12  1  0
 12 13  1  0
 13 14  2  0
 14 15  1  0
 15 16  2  0
 16 17  1  0
 17 18  2  0
 17 19  1  0
 19 20  1  0
 20 21  1  0
 21 22  1  0
  6 23  2  0
 23 24  1  0
 24 25  1  0
 25  1  2  0
 24  4  1  0
 12  8  1  0
 18 13  1  0
 22 16  1  0
  1 26  1  0
  2 27  1  0
  7 28  1  0
  7 29  1  0
  9 30  1  0
  9 31  1  0
 10 32  1  0
 10 33  1  0
 11 34  1  0
 11 35  1  0
 12 36  1  0
 14 37  1  0
 15 38  1  0
 18 39  1  0
 20 40  1  0
 20 41  1  0
 21 42  1  0
 21 43  1  0
 23 44  1  0
 25 45  1  0
M  END
>  <Energy>  (265) 
926.02662452391451

>  <compound_id>  (265) 
76325

>  <target_id>  (265) 
1

>  <reference_id>  (265) 
107

>  <inspiration_ids>  (265) 
[107, 13]

>  <energy_score>  (265) 
800.334719132641

>  <distance_score>  (265) 
9.642947055981065

>  <path>  (265) 
/opt/xchem-fragalysis-2/maxwin/BulkDock/SCRATCH/511022/C76325-P107/C76325-P107.minimised.mol

>  <scratch_subdir>  (265) 
/opt/xchem-fragalysis-2/maxwin/BulkDock/SCRATCH/511022/C76325-P107

>  <fragmenstein_runtime>  (265) 
17.527836322784424

>  <fragmenstein_outcome>  (265) 
too moved

>  <fragmenstein_mode>  (265) 
expansion

>  <fragmenstein_error>  (265) 


$$$$
C76325-P13
     RDKit          3D

 45 49  0  0  0  0  0  0  0  0999 V2000
  -10.9942  -17.7466   35.3967 C   0  0  0  0  0  0  0  0  0  0  0  0
  -12.1010  -16.7330   35.3177 C   0  0  0  0  0  0  0  0  0  0  0  0
  -12.1031  -15.6114   34.6478 N   0  0  0  0  0  0  0  0  0  0  0  0
  -10.9197  -15.3641   33.9758 C   0  0  0  0  0  0  0  0  0  0  0  0
  -10.3369  -14.2670   33.4454 N   0  0  0  0  0  0  0  0  0  0  0  0
   -9.1072  -14.2606   32.8701 C   0  0  0  0  0  0  0  0  0  0  0  0
   -7.6607  -12.9334   32.9282 C   0  0  0  0  0  0  0  0  0  0  0  0
   -7.2374  -11.4219   32.6343 N   0  0  0  0  0  0  0  0  0  0  0  0
   -8.6724  -10.2565   32.1626 C   0  0  0  0  0  0  0  0  0  0  0  0
   -7.9804   -8.1590   33.0077 C   0  0  0  0  0  0  0  0  0  0  0  0
   -6.0145   -9.3360   33.4755 C   0  0  0  0  0  0  0  0  0  0  0  0
   -5.6218  -10.2408   32.1955 C   0  0  0  0  0  0  0  0  0  0  0  0
   -5.7568   -8.5625   30.9680 C   0  0  0  0  0  0  0  0  0  0  0  0
   -6.4440   -6.8555   31.5407 C   0  0  0  0  0  0  0  0  0  0  0  0
   -6.0751   -5.1727   30.7238 C   0  0  0  0  0  0  0  0  0  0  0  0
   -5.9658   -4.7822   29.4140 C   0  0  0  0  0  0  0  0  0  0  0  0
   -6.2233   -6.0680   28.8383 C   0  0  0  0  0  0  0  0  0  0  0  0
   -5.7665   -7.9020   29.1704 C   0  0  0  0  0  0  0  0  0  0  0  0
   -7.3437   -5.4648   27.6713 O   0  0  0  0  0  0  0  0  0  0  0  0
   -8.1735   -4.1808   27.6628 C   0  0  0  0  0  0  0  0  0  0  0  0
   -7.6299   -3.2541   28.6784 C   0  0  0  0  0  0  0  0  0  0  0  0
   -6.2350   -3.6275   28.8583 O   0  0  0  0  0  0  0  0  0  0  0  0
   -9.2826  -15.6429   32.8078 C   0  0  0  0  0  0  0  0  0  0  0  0
   -9.9480  -16.2583   33.9165 N   0  0  0  0  0  0  0  0  0  0  0  0
   -9.9407  -17.4735   34.6103 C   0  0  0  0  0  0  0  0  0  0  0  0
  -11.1256  -18.6460   35.9760 H   0  0  0  0  0  0  0  0  0  0  0  0
  -13.0032  -16.9964   35.8935 H   0  0  0  0  0  0  0  0  0  0  0  0
   -8.5743  -12.3753   33.0300 H   0  0  0  0  0  0  0  0  0  0  0  0
   -7.0924  -13.3105   32.0554 H   0  0  0  0  0  0  0  0  0  0  0  0
   -8.5589  -10.4991   31.0654 H   0  0  0  0  0  0  0  0  0  0  0  0
   -9.6247  -10.6778   32.2814 H   0  0  0  0  0  0  0  0  0  0  0  0
   -7.9595   -7.3962   33.8606 H   0  0  0  0  0  0  0  0  0  0  0  0
   -9.0775   -8.1271   33.4285 H   0  0  0  0  0  0  0  0  0  0  0  0
   -5.9010  -10.1576   34.2643 H   0  0  0  0  0  0  0  0  0  0  0  0
   -5.1258   -8.6818   33.5420 H   0  0  0  0  0  0  0  0  0  0  0  0
   -5.6944  -10.8876   31.3316 H   0  0  0  0  0  0  0  0  0  0  0  0
   -6.9612   -6.7665   32.4503 H   0  0  0  0  0  0  0  0  0  0  0  0
   -5.8499   -4.2489   31.3462 H   0  0  0  0  0  0  0  0  0  0  0  0
   -6.1596   -8.6720   28.4990 H   0  0  0  0  0  0  0  0  0  0  0  0
   -9.2566   -4.3879   27.6235 H   0  0  0  0  0  0  0  0  0  0  0  0
   -8.2341   -3.6772   26.7020 H   0  0  0  0  0  0  0  0  0  0  0  0
   -8.1450   -3.2015   29.6418 H   0  0  0  0  0  0  0  0  0  0  0  0
   -7.7220   -2.2411   28.2697 H   0  0  0  0  0  0  0  0  0  0  0  0
   -8.5656  -16.3302   32.4677 H   0  0  0  0  0  0  0  0  0  0  0  0
   -9.1413  -18.1721   34.4335 H   0  0  0  0  0  0  0  0  0  0  0  0
  1  2  1  0
  2  3  2  0
  3  4  1  0
  4  5  2  0
  5  6  1  0
  6  7  1  0
  7  8  1  0
  8  9  1  0
  9 10  1  0
 10 11  1  0
 11 12  1  0
 12 13  1  0
 13 14  2  0
 14 15  1  0
 15 16  2  0
 16 17  1  0
 17 18  2  0
 17 19  1  0
 19 20  1  0
 20 21  1  0
 21 22  1  0
  6 23  2  0
 23 24  1  0
 24 25  1  0
 25  1  2  0
 24  4  1  0
 12  8  1  0
 18 13  1  0
 22 16  1  0
  1 26  1  0
  2 27  1  0
  7 28  1  0
  7 29  1  0
  9 30  1  0
  9 31  1  0
 10 32  1  0
 10 33  1  0
 11 34  1  0
 11 35  1  0
 12 36  1  0
 14 37  1  0
 15 38  1  0
 18 39  1  0
 20 40  1  0
 20 41  1  0
 21 42  1  0
 21 43  1  0
 23 44  1  0
 25 45  1  0
M  END
>  <Energy>  (266) 
1621.9017592309631

>  <compound_id>  (266) 
76325

>  <target_id>  (266) 
1

>  <reference_id>  (266) 
13

>  <inspiration_ids>  (266) 
[107, 13]

>  <energy_score>  (266) 
1496.2098538397354

>  <distance_score>  (266) 
8.913719185764155

>  <path>  (266) 
/opt/xchem-fragalysis-2/maxwin/BulkDock/SCRATCH/511022/C76325-P13/C76325-P13.minimised.mol

>  <scratch_subdir>  (266) 
/opt/xchem-fragalysis-2/maxwin/BulkDock/SCRATCH/511022/C76325-P13

>  <fragmenstein_runtime>  (266) 
23.120391368865967

>  <fragmenstein_outcome>  (266) 
too moved

>  <fragmenstein_mode>  (266) 
expansion

>  <fragmenstein_error>  (266) 


$$$$
C76327-P107
     RDKit          3D

 35 38  0  0  0  0  0  0  0  0999 V2000
   -6.8896   -9.8870   31.7890 O   0  0  0  0  0  0  0  0  0  0  0  0
   -7.6119   -8.8051   32.4163 S   0  0  0  0  0  0  0  0  0  0  0  0
   -7.0953   -8.1805   33.6176 O   0  0  0  0  0  0  0  0  0  0  0  0
   -9.2094   -9.3340   32.7328 N   0  0  0  0  0  0  0  0  0  0  0  0
   -9.6002  -10.6567   33.1834 C   0  0  0  0  0  0  0  0  0  0  0  0
  -11.0426  -11.0893   33.0468 C   0  0  0  0  0  0  0  0  0  0  0  0
  -11.5633  -12.2412   33.3542 N   0  0  0  0  0  0  0  0  0  0  0  0
  -10.6959  -13.1776   33.8356 C   0  0  0  0  0  0  0  0  0  0  0  0
  -10.9184  -14.4487   34.0935 N   0  0  0  0  0  0  0  0  0  0  0  0
   -9.7259  -14.9670   34.5190 C   0  0  0  0  0  0  0  0  0  0  0  0
   -8.7544  -13.9920   34.5453 C   0  0  0  0  0  0  0  0  0  0  0  0
   -9.3590  -12.8476   34.0756 N   0  0  0  0  0  0  0  0  0  0  0  0
   -8.8211  -11.5752   33.7769 C   0  0  0  0  0  0  0  0  0  0  0  0
   -7.8323   -7.4762   31.2031 C   0  0  0  0  0  0  0  0  0  0  0  0
   -7.7983   -7.7689   29.8352 C   0  0  0  0  0  0  0  0  0  0  0  0
   -7.9058   -6.7350   28.8936 C   0  0  0  0  0  0  0  0  0  0  0  0
   -8.0102   -5.4096   29.3120 C   0  0  0  0  0  0  0  0  0  0  0  0
   -7.9754   -5.1010   30.6737 C   0  0  0  0  0  0  0  0  0  0  0  0
   -7.9079   -6.1335   31.6198 C   0  0  0  0  0  0  0  0  0  0  0  0
   -8.0019   -3.8111   31.1459 O   0  0  0  0  0  0  0  0  0  0  0  0
   -8.4777   -2.8882   30.1560 C   0  0  0  0  0  0  0  0  0  0  0  0
   -7.8552   -3.1718   28.8059 C   0  0  0  0  0  0  0  0  0  0  0  0
   -8.2036   -4.4699   28.3365 O   0  0  0  0  0  0  0  0  0  0  0  0
   -9.9065   -8.8425   32.1728 H   0  0  0  0  0  0  0  0  0  0  0  0
  -11.7173  -10.3165   32.6417 H   0  0  0  0  0  0  0  0  0  0  0  0
   -9.6359  -16.0127   34.7865 H   0  0  0  0  0  0  0  0  0  0  0  0
   -7.7120  -14.0195   34.8245 H   0  0  0  0  0  0  0  0  0  0  0  0
   -7.7758  -11.4202   33.9884 H   0  0  0  0  0  0  0  0  0  0  0  0
   -7.6788   -8.7944   29.4903 H   0  0  0  0  0  0  0  0  0  0  0  0
   -7.9136   -6.9756   27.8334 H   0  0  0  0  0  0  0  0  0  0  0  0
   -7.9034   -5.8855   32.6777 H   0  0  0  0  0  0  0  0  0  0  0  0
   -8.2198   -1.8792   30.4922 H   0  0  0  0  0  0  0  0  0  0  0  0
   -9.5710   -2.9653   30.1143 H   0  0  0  0  0  0  0  0  0  0  0  0
   -8.1929   -2.4401   28.0661 H   0  0  0  0  0  0  0  0  0  0  0  0
   -6.7654   -3.1463   28.8560 H   0  0  0  0  0  0  0  0  0  0  0  0
  1  2  2  0
  2  3  2  0
  2  4  1  0
  4  5  1  0
  5  6  1  0
  6  7  2  0
  7  8  1  0
  8  9  2  0
  9 10  1  0
 10 11  2  0
 11 12  1  0
 12 13  1  0
  2 14  1  0
 14 15  2  0
 15 16  1  0
 16 17  2  0
 17 18  1  0
 18 19  2  0
 18 20  1  0
 20 21  1  0
 21 22  1  0
 22 23  1  0
 13  5  2  0
 19 14  1  0
 12  8  1  0
 23 17  1  0
  4 24  1  0
  6 25  1  0
 10 26  1  0
 11 27  1  0
 13 28  1  0
 15 29  1  0
 16 30  1  0
 19 31  1  0
 21 32  1  0
 21 33  1  0
 22 34  1  0
 22 35  1  0
M  END
>  <Energy>  (267) 
40.869196032529359

>  <compound_id>  (267) 
76327

>  <target_id>  (267) 
1

>  <reference_id>  (267) 
107

>  <inspiration_ids>  (267) 
[107, 13]

>  <energy_score>  (267) 
-39.74564442663274

>  <distance_score>  (267) 
11.045759716978862

>  <path>  (267) 
/opt/xchem-fragalysis-2/maxwin/BulkDock/SCRATCH/511022/C76327-P107/C76327-P107.minimised.mol

>  <scratch_subdir>  (267) 
/opt/xchem-fragalysis-2/maxwin/BulkDock/SCRATCH/511022/C76327-P107

>  <fragmenstein_runtime>  (267) 
20.1680965423584

>  <fragmenstein_outcome>  (267) 
too moved

>  <fragmenstein_mode>  (267) 
expansion

>  <fragmenstein_error>  (267) 


$$$$
C76327-P13
     RDKit          3D

 35 38  0  0  0  0  0  0  0  0999 V2000
   -5.2844  -15.5107   24.2126 O   0  0  0  0  0  0  0  0  0  0  0  0
   -6.6689  -14.6719   24.0521 S   0  0  0  0  0  0  0  0  0  0  0  0
   -5.5487  -13.9747   23.3568 O   0  0  0  0  0  0  0  0  0  0  0  0
   -7.5668  -16.6830   23.2702 N   0  0  0  0  0  0  0  0  0  0  0  0
   -8.2921  -17.2504   22.0319 C   0  0  0  0  0  0  0  0  0  0  0  0
   -7.6448  -18.5250   21.5027 C   0  0  0  0  0  0  0  0  0  0  0  0
   -8.1693  -19.7089   21.3689 N   0  0  0  0  0  0  0  0  0  0  0  0
   -9.4691  -19.8386   21.7598 C   0  0  0  0  0  0  0  0  0  0  0  0
  -10.1934  -20.9211   21.9577 N   0  0  0  0  0  0  0  0  0  0  0  0
  -11.4058  -20.5103   22.4419 C   0  0  0  0  0  0  0  0  0  0  0  0
  -11.4441  -19.1414   22.5222 C   0  0  0  0  0  0  0  0  0  0  0  0
  -10.1953  -18.7222   22.1215 N   0  0  0  0  0  0  0  0  0  0  0  0
   -9.6261  -17.4593   22.2248 C   0  0  0  0  0  0  0  0  0  0  0  0
   -6.1923  -12.3522   23.7104 C   0  0  0  0  0  0  0  0  0  0  0  0
   -4.6359  -11.7122   24.1740 C   0  0  0  0  0  0  0  0  0  0  0  0
   -3.6801  -10.4845   23.2219 C   0  0  0  0  0  0  0  0  0  0  0  0
   -4.3121   -9.9271   21.9255 C   0  0  0  0  0  0  0  0  0  0  0  0
   -5.8158  -10.3963   21.5611 C   0  0  0  0  0  0  0  0  0  0  0  0
   -6.7299  -11.5430   22.3723 C   0  0  0  0  0  0  0  0  0  0  0  0
   -6.5240   -9.6461   20.6237 O   0  0  0  0  0  0  0  0  0  0  0  0
   -5.8768   -8.3817   20.3851 C   0  0  0  0  0  0  0  0  0  0  0  0
   -4.3917   -8.5609   20.0929 C   0  0  0  0  0  0  0  0  0  0  0  0
   -3.6668   -8.9070   21.2740 O   0  0  0  0  0  0  0  0  0  0  0  0
   -6.6417  -17.1210   23.2618 H   0  0  0  0  0  0  0  0  0  0  0  0
   -6.5841  -18.4004   21.2254 H   0  0  0  0  0  0  0  0  0  0  0  0
  -12.1808  -21.2241   22.6906 H   0  0  0  0  0  0  0  0  0  0  0  0
  -12.2129  -18.4537   22.8402 H   0  0  0  0  0  0  0  0  0  0  0  0
  -10.2551  -16.8119   22.8129 H   0  0  0  0  0  0  0  0  0  0  0  0
   -3.9325  -12.2716   24.7679 H   0  0  0  0  0  0  0  0  0  0  0  0
   -2.6679  -10.2203   23.4955 H   0  0  0  0  0  0  0  0  0  0  0  0
   -7.7572  -11.6156   22.0414 H   0  0  0  0  0  0  0  0  0  0  0  0
   -6.3706   -7.9384   19.5143 H   0  0  0  0  0  0  0  0  0  0  0  0
   -6.0515   -7.7219   21.2436 H   0  0  0  0  0  0  0  0  0  0  0  0
   -3.9731   -7.6180   19.7263 H   0  0  0  0  0  0  0  0  0  0  0  0
   -4.2182   -9.3290   19.3287 H   0  0  0  0  0  0  0  0  0  0  0  0
  1  2  2  0
  2  3  2  0
  2  4  1  0
  4  5  1  0
  5  6  1  0
  6  7  2  0
  7  8  1  0
  8  9  2  0
  9 10  1  0
 10 11  2  0
 11 12  1  0
 12 13  1  0
  2 14  1  0
 14 15  2  0
 15 16  1  0
 16 17  2  0
 17 18  1  0
 18 19  2  0
 18 20  1  0
 20 21  1  0
 21 22  1  0
 22 23  1  0
 13  5  2  0
 19 14  1  0
 12  8  1  0
 23 17  1  0
  4 24  1  0
  6 25  1  0
 10 26  1  0
 11 27  1  0
 13 28  1  0
 15 29  1  0
 16 30  1  0
 19 31  1  0
 21 32  1  0
 21 33  1  0
 22 34  1  0
 22 35  1  0
M  END
>  <Energy>  (268) 
763.82632043262049

>  <compound_id>  (268) 
76327

>  <target_id>  (268) 
1

>  <reference_id>  (268) 
13

>  <inspiration_ids>  (268) 
[107, 13]

>  <energy_score>  (268) 
683.2114799734577

>  <distance_score>  (268) 
11.95370393773994

>  <path>  (268) 
/opt/xchem-fragalysis-2/maxwin/BulkDock/SCRATCH/511022/C76327-P13/C76327-P13.minimised.mol

>  <scratch_subdir>  (268) 
/opt/xchem-fragalysis-2/maxwin/BulkDock/SCRATCH/511022/C76327-P13

>  <fragmenstein_runtime>  (268) 
16.76731848716736

>  <fragmenstein_outcome>  (268) 
too moved

>  <fragmenstein_mode>  (268) 
expansion

>  <fragmenstein_error>  (268) 


$$$$
C76329-P107
     RDKit          3D

 35 38  0  0  0  0  0  0  0  0999 V2000
   -6.2046  -10.5240   30.6309 O   0  0  0  0  0  0  0  0  0  0  0  0
   -6.2040  -10.4924   29.4355 C   0  0  0  0  0  0  0  0  0  0  0  0
   -6.0311   -8.9207   28.4323 N   0  0  0  0  0  0  0  0  0  0  0  0
   -5.6548   -7.1845   28.9454 C   0  0  0  0  0  0  0  0  0  0  0  0
   -5.9332   -5.2158   28.7871 C   0  0  0  0  0  0  0  0  0  0  0  0
   -4.5484   -3.7770   28.5258 C   0  0  0  0  0  0  0  0  0  0  0  0
   -2.5317   -4.2174   28.6944 C   0  0  0  0  0  0  0  0  0  0  0  0
   -2.3237   -6.1207   28.3305 C   0  0  0  0  0  0  0  0  0  0  0  0
   -3.7931   -7.2828   28.6349 N   0  0  0  0  0  0  0  0  0  0  0  0
   -1.4915   -3.3491   28.7733 O   0  0  0  0  0  0  0  0  0  0  0  0
   -2.0182   -2.0434   28.9394 C   0  0  0  0  0  0  0  0  0  0  0  0
   -3.0561   -1.6784   27.8660 C   0  0  0  0  0  0  0  0  0  0  0  0
   -4.4545   -2.4976   27.7942 C   0  0  0  0  0  0  0  0  0  0  0  0
   -6.1523  -12.3804   28.7014 C   0  0  0  0  0  0  0  0  0  0  0  0
   -5.8721  -13.5826   29.7107 C   0  0  0  0  0  0  0  0  0  0  0  0
   -6.2031  -14.8587   29.1387 N   0  0  0  0  0  0  0  0  0  0  0  0
   -5.5991  -16.4657   29.3729 C   0  0  0  0  0  0  0  0  0  0  0  0
   -6.2153  -17.6370   28.6771 C   0  0  0  0  0  0  0  0  0  0  0  0
   -7.5763  -17.0532   27.8660 C   0  0  0  0  0  0  0  0  0  0  0  0
   -7.9283  -15.7794   27.5920 N   0  0  0  0  0  0  0  0  0  0  0  0
   -7.2217  -14.6076   28.1053 C   0  0  0  0  0  0  0  0  0  0  0  0
   -7.0654  -13.3239   27.6741 N   0  0  0  0  0  0  0  0  0  0  0  0
   -6.1412   -9.1301   27.4653 H   0  0  0  0  0  0  0  0  0  0  0  0
   -6.9565   -4.9046   28.5624 H   0  0  0  0  0  0  0  0  0  0  0  0
   -1.3692   -6.6331   28.2756 H   0  0  0  0  0  0  0  0  0  0  0  0
   -1.1711   -1.3538   28.8448 H   0  0  0  0  0  0  0  0  0  0  0  0
   -2.3834   -1.9344   29.9669 H   0  0  0  0  0  0  0  0  0  0  0  0
   -2.5768   -1.8616   26.9229 H   0  0  0  0  0  0  0  0  0  0  0  0
   -3.1548   -0.5938   27.8286 H   0  0  0  0  0  0  0  0  0  0  0  0
   -5.3804   -2.3037   28.2160 H   0  0  0  0  0  0  0  0  0  0  0  0
   -4.6640   -2.5786   26.7385 H   0  0  0  0  0  0  0  0  0  0  0  0
   -5.3123  -13.3910   30.5689 H   0  0  0  0  0  0  0  0  0  0  0  0
   -4.5275  -16.5036   29.1508 H   0  0  0  0  0  0  0  0  0  0  0  0
   -5.7457  -18.5495   28.3462 H   0  0  0  0  0  0  0  0  0  0  0  0
   -8.1744  -17.8571   27.4525 H   0  0  0  0  0  0  0  0  0  0  0  0
  1  2  2  0
  2  3  1  0
  3  4  1  0
  4  5  2  0
  5  6  1  0
  6  7  2  0
  7  8  1  0
  8  9  2  0
  7 10  1  0
 10 11  1  0
 11 12  1  0
 12 13  1  0
  2 14  1  0
 14 15  2  0
 15 16  1  0
 16 17  1  0
 17 18  2  0
 18 19  1  0
 19 20  2  0
 20 21  1  0
 21 22  2  0
  9  4  1  0
 22 14  1  0
 13  6  1  0
 21 16  1  0
  3 23  1  0
  5 24  1  0
  8 25  1  0
 11 26  1  0
 11 27  1  0
 12 28  1  0
 12 29  1  0
 13 30  1  0
 13 31  1  0
 15 32  1  0
 17 33  1  0
 18 34  1  0
 19 35  1  0
M  END
>  <Energy>  (269) 
1169.4992304153895

>  <compound_id>  (269) 
76329

>  <target_id>  (269) 
1

>  <reference_id>  (269) 
107

>  <inspiration_ids>  (269) 
[107, 13]

>  <energy_score>  (269) 
1091.4349924269995

>  <distance_score>  (269) 
8.519922720764296

>  <path>  (269) 
/opt/xchem-fragalysis-2/maxwin/BulkDock/SCRATCH/511022/C76329-P107/C76329-P107.minimised.mol

>  <scratch_subdir>  (269) 
/opt/xchem-fragalysis-2/maxwin/BulkDock/SCRATCH/511022/C76329-P107

>  <fragmenstein_runtime>  (269) 
17.115532398223877

>  <fragmenstein_outcome>  (269) 
too moved

>  <fragmenstein_mode>  (269) 
expansion

>  <fragmenstein_error>  (269) 


$$$$
C76329-P13
     RDKit          3D

 35 38  0  0  0  0  0  0  0  0999 V2000
   -4.4463  -11.9553   27.2514 O   0  0  0  0  0  0  0  0  0  0  0  0
   -5.6140  -11.5040   27.0803 C   0  0  0  0  0  0  0  0  0  0  0  0
   -6.3005   -9.5822   27.1043 N   0  0  0  0  0  0  0  0  0  0  0  0
   -5.3763   -7.8309   27.5499 C   0  0  0  0  0  0  0  0  0  0  0  0
   -5.8276   -5.9440   27.3487 C   0  0  0  0  0  0  0  0  0  0  0  0
   -5.3208   -4.2688   28.3409 C   0  0  0  0  0  0  0  0  0  0  0  0
   -6.1383   -3.8059   29.1775 C   0  0  0  0  0  0  0  0  0  0  0  0
   -6.3687   -5.2668   29.4049 C   0  0  0  0  0  0  0  0  0  0  0  0
   -5.8856   -6.9798   28.9358 N   0  0  0  0  0  0  0  0  0  0  0  0
   -5.3332   -2.9249   27.8618 O   0  0  0  0  0  0  0  0  0  0  0  0
   -3.8037   -2.1254   27.3780 C   0  0  0  0  0  0  0  0  0  0  0  0
   -2.6710   -2.2024   28.2529 C   0  0  0  0  0  0  0  0  0  0  0  0
   -3.5728   -3.2087   28.8715 C   0  0  0  0  0  0  0  0  0  0  0  0
   -6.8399  -12.8515   26.9479 C   0  0  0  0  0  0  0  0  0  0  0  0
   -7.3414  -13.8447   26.1932 C   0  0  0  0  0  0  0  0  0  0  0  0
   -8.5561  -14.3958   26.7807 N   0  0  0  0  0  0  0  0  0  0  0  0
   -9.3514  -15.4286   26.2801 C   0  0  0  0  0  0  0  0  0  0  0  0
   -8.8230  -16.5308   25.8120 C   0  0  0  0  0  0  0  0  0  0  0  0
   -8.3661  -16.9025   27.1598 C   0  0  0  0  0  0  0  0  0  0  0  0
   -7.9963  -16.0854   28.0923 N   0  0  0  0  0  0  0  0  0  0  0  0
   -7.9864  -14.6940   27.9179 C   0  0  0  0  0  0  0  0  0  0  0  0
   -7.1704  -13.6949   28.2068 N   0  0  0  0  0  0  0  0  0  0  0  0
   -7.3108   -9.5435   27.0149 H   0  0  0  0  0  0  0  0  0  0  0  0
   -6.9352   -5.7552   27.1905 H   0  0  0  0  0  0  0  0  0  0  0  0
   -6.8730   -5.4187   30.3851 H   0  0  0  0  0  0  0  0  0  0  0  0
   -3.6644   -2.2594   26.3004 H   0  0  0  0  0  0  0  0  0  0  0  0
   -3.7020   -1.0858   27.6483 H   0  0  0  0  0  0  0  0  0  0  0  0
   -1.7260   -2.4946   27.7782 H   0  0  0  0  0  0  0  0  0  0  0  0
   -2.4319   -1.3699   28.9352 H   0  0  0  0  0  0  0  0  0  0  0  0
   -3.5195   -2.8728   30.0365 H   0  0  0  0  0  0  0  0  0  0  0  0
   -2.5857   -3.8360   29.0654 H   0  0  0  0  0  0  0  0  0  0  0  0
   -7.2211  -14.3622   25.2621 H   0  0  0  0  0  0  0  0  0  0  0  0
  -10.3452  -15.5497   26.7339 H   0  0  0  0  0  0  0  0  0  0  0  0
   -9.4991  -17.1554   25.2683 H   0  0  0  0  0  0  0  0  0  0  0  0
   -8.4454  -17.9186   27.4895 H   0  0  0  0  0  0  0  0  0  0  0  0
  1  2  2  0
  2  3  1  0
  3  4  1  0
  4  5  2  0
  5  6  1  0
  6  7  2  0
  7  8  1  0
  8  9  2  0
  7 10  1  0
 10 11  1  0
 11 12  1  0
 12 13  1  0
  2 14  1  0
 14 15  2  0
 15 16  1  0
 16 17  1  0
 17 18  2  0
 18 19  1  0
 19 20  2  0
 20 21  1  0
 21 22  2  0
  9  4  1  0
 22 14  1  0
 13  6  1  0
 21 16  1  0
  3 23  1  0
  5 24  1  0
  8 25  1  0
 11 26  1  0
 11 27  1  0
 12 28  1  0
 12 29  1  0
 13 30  1  0
 13 31  1  0
 15 32  1  0
 17 33  1  0
 18 34  1  0
 19 35  1  0
M  END
>  <Energy>  (270) 
1505.2233788309431

>  <compound_id>  (270) 
76329

>  <target_id>  (270) 
1

>  <reference_id>  (270) 
13

>  <inspiration_ids>  (270) 
[107, 13]

>  <energy_score>  (270) 
1427.1591408425616

>  <distance_score>  (270) 
8.651782217438946

>  <path>  (270) 
/opt/xchem-fragalysis-2/maxwin/BulkDock/SCRATCH/511022/C76329-P13/C76329-P13.minimised.mol

>  <scratch_subdir>  (270) 
/opt/xchem-fragalysis-2/maxwin/BulkDock/SCRATCH/511022/C76329-P13

>  <fragmenstein_runtime>  (270) 
16.392807483673096

>  <fragmenstein_outcome>  (270) 
too moved

>  <fragmenstein_mode>  (270) 
expansion

>  <fragmenstein_error>  (270) 


$$$$
C76332-P107
     RDKit          3D

 45 49  0  0  0  0  0  0  0  0999 V2000
    0.1105   -7.9551   32.5004 O   0  0  0  0  0  0  0  0  0  0  0  0
   -1.2741   -7.6385   32.2560 S   0  0  0  0  0  0  0  0  0  0  0  0
   -2.1140   -7.2776   33.3632 O   0  0  0  0  0  0  0  0  0  0  0  0
   -2.0501   -8.9002   31.2546 N   0  0  0  0  0  0  0  0  0  0  0  0
   -3.1547   -9.9370   31.6274 C   0  0  0  0  0  0  0  0  0  0  0  0
   -3.5772  -11.3024   30.7354 C   0  0  0  0  0  0  0  0  0  0  0  0
   -5.0726  -12.2251   30.7809 C   0  0  0  0  0  0  0  0  0  0  0  0
   -6.3129  -12.2040   31.7670 C   0  0  0  0  0  0  0  0  0  0  0  0
   -7.3957  -13.6959   32.5964 C   0  0  0  0  0  0  0  0  0  0  0  0
   -8.4610  -14.7369   32.2988 C   0  0  0  0  0  0  0  0  0  0  0  0
   -8.5102  -16.0257   33.3394 N   0  0  0  0  0  0  0  0  0  0  0  0
   -9.5971  -16.5770   34.0894 C   0  0  0  0  0  0  0  0  0  0  0  0
   -9.5675  -16.6888   35.4350 C   0  0  0  0  0  0  0  0  0  0  0  0
   -8.1704  -17.0123   35.8426 C   0  0  0  0  0  0  0  0  0  0  0  0
   -7.1129  -16.8361   35.1253 N   0  0  0  0  0  0  0  0  0  0  0  0
   -7.3244  -16.0361   34.0432 C   0  0  0  0  0  0  0  0  0  0  0  0
   -6.9047  -14.8070   33.9614 N   0  0  0  0  0  0  0  0  0  0  0  0
   -5.5379  -10.7318   32.3355 C   0  0  0  0  0  0  0  0  0  0  0  0
   -4.2832   -9.6137   32.3252 C   0  0  0  0  0  0  0  0  0  0  0  0
   -0.9942   -6.1670   31.2250 C   0  0  0  0  0  0  0  0  0  0  0  0
   -0.4862   -6.2975   29.9237 C   0  0  0  0  0  0  0  0  0  0  0  0
   -0.1803   -5.1488   29.1641 C   0  0  0  0  0  0  0  0  0  0  0  0
   -0.3446   -3.8726   29.7002 C   0  0  0  0  0  0  0  0  0  0  0  0
   -0.8199   -3.7384   31.0072 C   0  0  0  0  0  0  0  0  0  0  0  0
   -1.1003   -4.8786   31.7850 C   0  0  0  0  0  0  0  0  0  0  0  0
   -1.0583   -2.5143   31.5792 O   0  0  0  0  0  0  0  0  0  0  0  0
   -1.1383   -1.4795   30.5915 C   0  0  0  0  0  0  0  0  0  0  0  0
    0.0037   -1.5784   29.5965 C   0  0  0  0  0  0  0  0  0  0  0  0
   -0.0562   -2.8142   28.8795 O   0  0  0  0  0  0  0  0  0  0  0  0
   -1.3021   -9.4100   30.7883 H   0  0  0  0  0  0  0  0  0  0  0  0
   -2.8907  -11.6472   29.9486 H   0  0  0  0  0  0  0  0  0  0  0  0
   -5.0817  -13.0221   30.0608 H   0  0  0  0  0  0  0  0  0  0  0  0
   -9.2280  -14.8856   31.5649 H   0  0  0  0  0  0  0  0  0  0  0  0
   -9.8264  -17.5773   33.7627 H   0  0  0  0  0  0  0  0  0  0  0  0
  -10.3232  -17.2527   35.9716 H   0  0  0  0  0  0  0  0  0  0  0  0
   -8.0699  -17.5232   36.8117 H   0  0  0  0  0  0  0  0  0  0  0  0
   -5.9957  -10.3010   33.2297 H   0  0  0  0  0  0  0  0  0  0  0  0
   -4.3526   -8.8135   33.0415 H   0  0  0  0  0  0  0  0  0  0  0  0
   -0.3398   -7.2777   29.4804 H   0  0  0  0  0  0  0  0  0  0  0  0
    0.1504   -5.2507   28.1350 H   0  0  0  0  0  0  0  0  0  0  0  0
   -1.4163   -4.7564   32.8203 H   0  0  0  0  0  0  0  0  0  0  0  0
   -2.1044   -1.5649   30.0866 H   0  0  0  0  0  0  0  0  0  0  0  0
   -1.1079   -0.5177   31.1127 H   0  0  0  0  0  0  0  0  0  0  0  0
   -0.0553   -0.7652   28.8664 H   0  0  0  0  0  0  0  0  0  0  0  0
    0.9765   -1.5180   30.0996 H   0  0  0  0  0  0  0  0  0  0  0  0
  1  2  2  0
  2  3  2  0
  2  4  1  0
  4  5  1  0
  5  6  2  0
  6  7  1  0
  7  8  2  0
  8  9  1  0
  9 10  2  0
 10 11  1  0
 11 12  1  0
 12 13  2  0
 13 14  1  0
 14 15  2  0
 15 16  1  0
 16 17  2  0
  8 18  1  0
 18 19  2  0
  2 20  1  0
 20 21  2  0
 21 22  1  0
 22 23  2  0
 23 24  1  0
 24 25  2  0
 24 26  1  0
 26 27  1  0
 27 28  1  0
 28 29  1  0
 19  5  1  0
 25 20  1  0
 17  9  1  0
 29 23  1  0
 16 11  1  0
  4 30  1  0
  6 31  1  0
  7 32  1  0
 10 33  1  0
 12 34  1  0
 13 35  1  0
 14 36  1  0
 18 37  1  0
 19 38  1  0
 21 39  1  0
 22 40  1  0
 25 41  1  0
 27 42  1  0
 27 43  1  0
 28 44  1  0
 28 45  1  0
M  END
>  <Energy>  (271) 
549.41389486541232

>  <compound_id>  (271) 
76332

>  <target_id>  (271) 
1

>  <reference_id>  (271) 
107

>  <inspiration_ids>  (271) 
[107, 13]

>  <energy_score>  (271) 
459.30343121160513

>  <distance_score>  (271) 
8.25065251936837

>  <path>  (271) 
/opt/xchem-fragalysis-2/maxwin/BulkDock/SCRATCH/511022/C76332-P107/C76332-P107.minimised.mol

>  <scratch_subdir>  (271) 
/opt/xchem-fragalysis-2/maxwin/BulkDock/SCRATCH/511022/C76332-P107

>  <fragmenstein_runtime>  (271) 
25.075448513031006

>  <fragmenstein_outcome>  (271) 
too moved

>  <fragmenstein_mode>  (271) 
expansion

>  <fragmenstein_error>  (271) 


$$$$
C76332-P13
     RDKit          3D

 45 49  0  0  0  0  0  0  0  0999 V2000
   -1.3121   -8.4146   30.3501 O   0  0  0  0  0  0  0  0  0  0  0  0
   -1.6291   -7.9000   31.6634 S   0  0  0  0  0  0  0  0  0  0  0  0
   -0.7902   -8.3396   32.7580 O   0  0  0  0  0  0  0  0  0  0  0  0
   -3.1652   -8.4891   32.1348 N   0  0  0  0  0  0  0  0  0  0  0  0
   -4.8663   -9.0245   31.9418 C   0  0  0  0  0  0  0  0  0  0  0  0
   -5.5744  -10.6808   31.4105 C   0  0  0  0  0  0  0  0  0  0  0  0
   -6.6952  -11.9836   31.8178 C   0  0  0  0  0  0  0  0  0  0  0  0
   -6.4436  -12.7268   32.7721 C   0  0  0  0  0  0  0  0  0  0  0  0
   -5.8880  -14.3609   31.7410 C   0  0  0  0  0  0  0  0  0  0  0  0
   -4.6326  -15.0951   31.2827 C   0  0  0  0  0  0  0  0  0  0  0  0
   -4.7411  -16.3975   30.8753 N   0  0  0  0  0  0  0  0  0  0  0  0
   -3.8620  -17.2953   30.2954 C   0  0  0  0  0  0  0  0  0  0  0  0
   -4.0921  -18.6068   30.4478 C   0  0  0  0  0  0  0  0  0  0  0  0
   -5.2650  -18.9109   31.3092 C   0  0  0  0  0  0  0  0  0  0  0  0
   -6.1355  -18.0681   31.7632 N   0  0  0  0  0  0  0  0  0  0  0  0
   -5.8261  -16.7511   31.5568 C   0  0  0  0  0  0  0  0  0  0  0  0
   -6.4814  -15.6002   31.8395 N   0  0  0  0  0  0  0  0  0  0  0  0
   -5.8682  -11.0863   33.4195 C   0  0  0  0  0  0  0  0  0  0  0  0
   -5.2617   -9.3936   33.3170 C   0  0  0  0  0  0  0  0  0  0  0  0
   -1.1946   -6.1400   31.6463 C   0  0  0  0  0  0  0  0  0  0  0  0
   -1.2030   -5.3364   32.7838 C   0  0  0  0  0  0  0  0  0  0  0  0
   -0.9650   -3.9444   32.6751 C   0  0  0  0  0  0  0  0  0  0  0  0
   -0.6459   -3.3653   31.4472 C   0  0  0  0  0  0  0  0  0  0  0  0
   -0.3962   -4.2006   30.3674 C   0  0  0  0  0  0  0  0  0  0  0  0
   -0.6192   -5.5812   30.4949 C   0  0  0  0  0  0  0  0  0  0  0  0
   -0.0049   -3.7428   29.1368 O   0  0  0  0  0  0  0  0  0  0  0  0
    0.3071   -2.3449   29.1445 C   0  0  0  0  0  0  0  0  0  0  0  0
   -0.6844   -1.5666   29.9930 C   0  0  0  0  0  0  0  0  0  0  0  0
   -0.5984   -1.9972   31.3628 O   0  0  0  0  0  0  0  0  0  0  0  0
   -2.8591   -9.1016   32.8989 H   0  0  0  0  0  0  0  0  0  0  0  0
   -6.3002  -10.5684   30.3891 H   0  0  0  0  0  0  0  0  0  0  0  0
   -6.8658  -12.7932   31.1385 H   0  0  0  0  0  0  0  0  0  0  0  0
   -3.5684  -14.9494   31.4846 H   0  0  0  0  0  0  0  0  0  0  0  0
   -3.0018  -16.8913   29.7786 H   0  0  0  0  0  0  0  0  0  0  0  0
   -3.4751  -19.4044   30.0638 H   0  0  0  0  0  0  0  0  0  0  0  0
   -5.3696  -19.9559   31.5881 H   0  0  0  0  0  0  0  0  0  0  0  0
   -6.0360  -10.7676   34.5001 H   0  0  0  0  0  0  0  0  0  0  0  0
   -4.7496   -9.0187   34.2193 H   0  0  0  0  0  0  0  0  0  0  0  0
   -1.4650   -5.7570   33.7528 H   0  0  0  0  0  0  0  0  0  0  0  0
   -1.0892   -3.3158   33.5553 H   0  0  0  0  0  0  0  0  0  0  0  0
   -0.4342   -6.2173   29.6458 H   0  0  0  0  0  0  0  0  0  0  0  0
    1.3308   -2.2255   29.5193 H   0  0  0  0  0  0  0  0  0  0  0  0
    0.2785   -1.9900   28.1103 H   0  0  0  0  0  0  0  0  0  0  0  0
   -0.4538   -0.4971   29.9664 H   0  0  0  0  0  0  0  0  0  0  0  0
   -1.7154   -1.7055   29.6443 H   0  0  0  0  0  0  0  0  0  0  0  0
  1  2  2  0
  2  3  2  0
  2  4  1  0
  4  5  1  0
  5  6  2  0
  6  7  1  0
  7  8  2  0
  8  9  1  0
  9 10  2  0
 10 11  1  0
 11 12  1  0
 12 13  2  0
 13 14  1  0
 14 15  2  0
 15 16  1  0
 16 17  2  0
  8 18  1  0
 18 19  2  0
  2 20  1  0
 20 21  2  0
 21 22  1  0
 22 23  2  0
 23 24  1  0
 24 25  2  0
 24 26  1  0
 26 27  1  0
 27 28  1  0
 28 29  1  0
 19  5  1  0
 25 20  1  0
 17  9  1  0
 29 23  1  0
 16 11  1  0
  4 30  1  0
  6 31  1  0
  7 32  1  0
 10 33  1  0
 12 34  1  0
 13 35  1  0
 14 36  1  0
 18 37  1  0
 19 38  1  0
 21 39  1  0
 22 40  1  0
 25 41  1  0
 27 42  1  0
 27 43  1  0
 28 44  1  0
 28 45  1  0
M  END
>  <Energy>  (272) 
758.01560498619585

>  <compound_id>  (272) 
76332

>  <target_id>  (272) 
1

>  <reference_id>  (272) 
13

>  <inspiration_ids>  (272) 
[107, 13]

>  <energy_score>  (272) 
667.9051413323971

>  <distance_score>  (272) 
8.346054989218898

>  <path>  (272) 
/opt/xchem-fragalysis-2/maxwin/BulkDock/SCRATCH/511022/C76332-P13/C76332-P13.minimised.mol

>  <scratch_subdir>  (272) 
/opt/xchem-fragalysis-2/maxwin/BulkDock/SCRATCH/511022/C76332-P13

>  <fragmenstein_runtime>  (272) 
20.802411556243896

>  <fragmenstein_outcome>  (272) 
too moved

>  <fragmenstein_mode>  (272) 
expansion

>  <fragmenstein_error>  (272) 


$$$$
C76333-P107
     RDKit          3D

 35 38  0  0  0  0  0  0  0  0999 V2000
   -4.4445  -12.2612   29.4320 O   0  0  0  0  0  0  0  0  0  0  0  0
   -5.5875  -11.9105   29.1658 C   0  0  0  0  0  0  0  0  0  0  0  0
   -6.3576  -10.2195   29.5209 N   0  0  0  0  0  0  0  0  0  0  0  0
   -5.6369   -8.7537   30.1642 C   0  0  0  0  0  0  0  0  0  0  0  0
   -4.7573   -7.8737   28.9901 C   0  0  0  0  0  0  0  0  0  0  0  0
   -3.1333   -7.2471   29.5043 C   0  0  0  0  0  0  0  0  0  0  0  0
   -2.6511   -7.3910   30.9801 C   0  0  0  0  0  0  0  0  0  0  0  0
   -3.4771   -8.1744   31.8745 C   0  0  0  0  0  0  0  0  0  0  0  0
   -4.8182   -8.7867   31.6017 N   0  0  0  0  0  0  0  0  0  0  0  0
   -1.4223   -7.0166   31.4295 O   0  0  0  0  0  0  0  0  0  0  0  0
   -0.4293   -6.6141   30.4820 C   0  0  0  0  0  0  0  0  0  0  0  0
   -0.5444   -7.2945   29.1236 C   0  0  0  0  0  0  0  0  0  0  0  0
   -1.8427   -6.8308   28.4843 C   0  0  0  0  0  0  0  0  0  0  0  0
   -6.7910  -13.2066   28.2284 C   0  0  0  0  0  0  0  0  0  0  0  0
   -7.0674  -13.3750   26.7900 C   0  0  0  0  0  0  0  0  0  0  0  0
   -7.8598  -14.4346   26.4194 C   0  0  0  0  0  0  0  0  0  0  0  0
   -8.6406  -15.1394   27.2479 N   0  0  0  0  0  0  0  0  0  0  0  0
   -9.4714  -16.2021   27.1472 C   0  0  0  0  0  0  0  0  0  0  0  0
  -10.2185  -16.1177   28.2934 C   0  0  0  0  0  0  0  0  0  0  0  0
   -9.7736  -15.0904   29.0666 N   0  0  0  0  0  0  0  0  0  0  0  0
   -8.6747  -14.6659   28.4689 C   0  0  0  0  0  0  0  0  0  0  0  0
   -7.5189  -14.0273   28.9104 N   0  0  0  0  0  0  0  0  0  0  0  0
   -7.2689  -10.1700   29.1289 H   0  0  0  0  0  0  0  0  0  0  0  0
   -5.0315   -8.0151   27.9547 H   0  0  0  0  0  0  0  0  0  0  0  0
   -3.1413   -8.3789   32.8913 H   0  0  0  0  0  0  0  0  0  0  0  0
   -0.4538   -5.5216   30.3924 H   0  0  0  0  0  0  0  0  0  0  0  0
    0.5419   -6.8674   30.9215 H   0  0  0  0  0  0  0  0  0  0  0  0
   -0.5098   -8.3831   29.2320 H   0  0  0  0  0  0  0  0  0  0  0  0
    0.2965   -7.0013   28.4933 H   0  0  0  0  0  0  0  0  0  0  0  0
   -1.6667   -5.7555   28.3452 H   0  0  0  0  0  0  0  0  0  0  0  0
   -1.9972   -7.0824   27.4414 H   0  0  0  0  0  0  0  0  0  0  0  0
   -6.6380  -12.6682   26.1096 H   0  0  0  0  0  0  0  0  0  0  0  0
   -7.9275  -14.8224   25.4060 H   0  0  0  0  0  0  0  0  0  0  0  0
   -9.4876  -16.8275   26.2763 H   0  0  0  0  0  0  0  0  0  0  0  0
  -11.0117  -16.7472   28.6582 H   0  0  0  0  0  0  0  0  0  0  0  0
  1  2  2  0
  2  3  1  0
  3  4  1  0
  4  5  2  0
  5  6  1  0
  6  7  2  0
  7  8  1  0
  8  9  2  0
  7 10  1  0
 10 11  1  0
 11 12  1  0
 12 13  1  0
  2 14  1  0
 14 15  1  0
 15 16  2  0
 16 17  1  0
 17 18  1  0
 18 19  2  0
 19 20  1  0
 20 21  2  0
 21 22  1  0
  9  4  1  0
 22 14  2  0
 13  6  1  0
 21 17  1  0
  3 23  1  0
  5 24  1  0
  8 25  1  0
 11 26  1  0
 11 27  1  0
 12 28  1  0
 12 29  1  0
 13 30  1  0
 13 31  1  0
 15 32  1  0
 16 33  1  0
 18 34  1  0
 19 35  1  0
M  END
>  <Energy>  (273) 
427.23334343567848

>  <compound_id>  (273) 
76333

>  <target_id>  (273) 
1

>  <reference_id>  (273) 
107

>  <inspiration_ids>  (273) 
[107, 13]

>  <energy_score>  (273) 
332.5248963273823

>  <distance_score>  (273) 
9.749144019767625

>  <path>  (273) 
/opt/xchem-fragalysis-2/maxwin/BulkDock/SCRATCH/511022/C76333-P107/C76333-P107.minimised.mol

>  <scratch_subdir>  (273) 
/opt/xchem-fragalysis-2/maxwin/BulkDock/SCRATCH/511022/C76333-P107

>  <fragmenstein_runtime>  (273) 
12.566328048706055

>  <fragmenstein_outcome>  (273) 
too moved

>  <fragmenstein_mode>  (273) 
expansion

>  <fragmenstein_error>  (273) 


$$$$
C76333-P13
     RDKit          3D

 35 38  0  0  0  0  0  0  0  0999 V2000
   -8.6501  -15.0324   25.6170 O   0  0  0  0  0  0  0  0  0  0  0  0
   -8.4291  -14.7878   26.7707 C   0  0  0  0  0  0  0  0  0  0  0  0
   -7.5500  -13.1245   27.1864 N   0  0  0  0  0  0  0  0  0  0  0  0
   -7.0114  -11.5609   26.0541 C   0  0  0  0  0  0  0  0  0  0  0  0
   -6.0129  -10.1689   26.6503 C   0  0  0  0  0  0  0  0  0  0  0  0
   -5.1802   -8.4083   27.4307 C   0  0  0  0  0  0  0  0  0  0  0  0
   -5.6699   -7.8711   28.6324 C   0  0  0  0  0  0  0  0  0  0  0  0
   -6.9091   -9.0350   28.0370 C   0  0  0  0  0  0  0  0  0  0  0  0
   -7.4210   -9.8438   26.4215 N   0  0  0  0  0  0  0  0  0  0  0  0
   -5.9294   -5.9252   28.5764 O   0  0  0  0  0  0  0  0  0  0  0  0
   -4.6915   -4.2496   28.5536 C   0  0  0  0  0  0  0  0  0  0  0  0
   -2.6100   -5.3980   28.3432 C   0  0  0  0  0  0  0  0  0  0  0  0
   -3.3845   -7.3048   27.6810 C   0  0  0  0  0  0  0  0  0  0  0  0
   -9.2483  -16.2736   27.9461 C   0  0  0  0  0  0  0  0  0  0  0  0
   -8.7064  -17.9450   27.9565 C   0  0  0  0  0  0  0  0  0  0  0  0
   -9.0235  -19.4971   28.3969 C   0  0  0  0  0  0  0  0  0  0  0  0
  -10.5406  -20.0178   29.3808 N   0  0  0  0  0  0  0  0  0  0  0  0
  -11.3351  -21.1127   29.4775 C   0  0  0  0  0  0  0  0  0  0  0  0
  -12.5336  -20.5027   29.4507 C   0  0  0  0  0  0  0  0  0  0  0  0
  -12.5161  -18.8479   29.2072 N   0  0  0  0  0  0  0  0  0  0  0  0
  -11.2101  -18.2084   29.1726 C   0  0  0  0  0  0  0  0  0  0  0  0
  -10.6064  -16.7197   28.5131 N   0  0  0  0  0  0  0  0  0  0  0  0
   -7.3610  -13.1022   28.1563 H   0  0  0  0  0  0  0  0  0  0  0  0
   -6.2029  -10.5656   25.3601 H   0  0  0  0  0  0  0  0  0  0  0  0
   -7.5750   -9.4146   28.8212 H   0  0  0  0  0  0  0  0  0  0  0  0
   -5.2045   -3.7250   27.7170 H   0  0  0  0  0  0  0  0  0  0  0  0
   -5.2731   -3.9177   29.4766 H   0  0  0  0  0  0  0  0  0  0  0  0
   -1.6673   -5.0477   28.9104 H   0  0  0  0  0  0  0  0  0  0  0  0
   -1.9563   -5.3086   27.4129 H   0  0  0  0  0  0  0  0  0  0  0  0
   -2.9688   -7.5811   28.6451 H   0  0  0  0  0  0  0  0  0  0  0  0
   -2.7680   -7.4785   26.7899 H   0  0  0  0  0  0  0  0  0  0  0  0
   -7.8873  -17.7602   27.2520 H   0  0  0  0  0  0  0  0  0  0  0  0
   -8.3678  -20.4181   28.0501 H   0  0  0  0  0  0  0  0  0  0  0  0
  -11.0344  -22.1415   29.4906 H   0  0  0  0  0  0  0  0  0  0  0  0
  -13.3782  -21.0224   29.8035 H   0  0  0  0  0  0  0  0  0  0  0  0
  1  2  2  0
  2  3  1  0
  3  4  1  0
  4  5  2  0
  5  6  1  0
  6  7  2  0
  7  8  1  0
  8  9  2  0
  7 10  1  0
 10 11  1  0
 11 12  1  0
 12 13  1  0
  2 14  1  0
 14 15  1  0
 15 16  2  0
 16 17  1  0
 17 18  1  0
 18 19  2  0
 19 20  1  0
 20 21  2  0
 21 22  1  0
  9  4  1  0
 22 14  2  0
 13  6  1  0
 21 17  1  0
  3 23  1  0
  5 24  1  0
  8 25  1  0
 11 26  1  0
 11 27  1  0
 12 28  1  0
 12 29  1  0
 13 30  1  0
 13 31  1  0
 15 32  1  0
 16 33  1  0
 18 34  1  0
 19 35  1  0
M  END
>  <Energy>  (274) 
2408.6604116631038

>  <compound_id>  (274) 
76333

>  <target_id>  (274) 
1

>  <reference_id>  (274) 
13

>  <inspiration_ids>  (274) 
[107, 13]

>  <energy_score>  (274) 
2313.951964554828

>  <distance_score>  (274) 
7.806388445967458

>  <path>  (274) 
/opt/xchem-fragalysis-2/maxwin/BulkDock/SCRATCH/511022/C76333-P13/C76333-P13.minimised.mol

>  <scratch_subdir>  (274) 
/opt/xchem-fragalysis-2/maxwin/BulkDock/SCRATCH/511022/C76333-P13

>  <fragmenstein_runtime>  (274) 
25.275846481323242

>  <fragmenstein_outcome>  (274) 
too moved

>  <fragmenstein_mode>  (274) 
expansion

>  <fragmenstein_error>  (274) 


$$$$
C76325-P107
     RDKit          3D

 45 49  0  0  0  0  0  0  0  0999 V2000
   -5.9338  -18.6611   33.8412 C   0  0  0  0  0  0  0  0  0  0  0  0
   -7.3970  -18.8602   33.9727 C   0  0  0  0  0  0  0  0  0  0  0  0
   -8.3695  -17.9811   33.8895 N   0  0  0  0  0  0  0  0  0  0  0  0
   -8.0075  -16.7348   33.4527 C   0  0  0  0  0  0  0  0  0  0  0  0
   -8.5452  -15.6628   32.7082 N   0  0  0  0  0  0  0  0  0  0  0  0
   -7.6097  -14.4585   32.7225 C   0  0  0  0  0  0  0  0  0  0  0  0
   -6.6484  -13.0691   31.5835 C   0  0  0  0  0  0  0  0  0  0  0  0
   -5.6675  -11.3474   31.4293 N   0  0  0  0  0  0  0  0  0  0  0  0
   -6.3550  -10.1011   30.4365 C   0  0  0  0  0  0  0  0  0  0  0  0
   -5.4828   -8.6182   31.1097 C   0  0  0  0  0  0  0  0  0  0  0  0
   -4.2157   -8.8253   31.6707 C   0  0  0  0  0  0  0  0  0  0  0  0
   -4.5235  -10.1109   32.3467 C   0  0  0  0  0  0  0  0  0  0  0  0
   -2.7257   -9.6685   32.6911 C   0  0  0  0  0  0  0  0  0  0  0  0
   -1.8492   -9.4043   31.6086 C   0  0  0  0  0  0  0  0  0  0  0  0
   -1.1244   -8.1732   31.4608 C   0  0  0  0  0  0  0  0  0  0  0  0
   -1.0559   -7.2720   32.4984 C   0  0  0  0  0  0  0  0  0  0  0  0
   -1.6766   -7.6098   33.7026 C   0  0  0  0  0  0  0  0  0  0  0  0
   -2.4998   -8.7860   33.8179 C   0  0  0  0  0  0  0  0  0  0  0  0
   -1.6729   -6.7396   34.7643 O   0  0  0  0  0  0  0  0  0  0  0  0
   -0.6702   -5.7218   34.6340 C   0  0  0  0  0  0  0  0  0  0  0  0
   -0.6362   -5.1211   33.2423 C   0  0  0  0  0  0  0  0  0  0  0  0
   -0.3797   -6.1112   32.2467 O   0  0  0  0  0  0  0  0  0  0  0  0
   -6.8575  -15.2623   34.0326 C   0  0  0  0  0  0  0  0  0  0  0  0
   -6.6765  -16.4973   33.5487 N   0  0  0  0  0  0  0  0  0  0  0  0
   -5.6354  -17.3746   33.7148 C   0  0  0  0  0  0  0  0  0  0  0  0
   -5.2437  -19.4789   33.9651 H   0  0  0  0  0  0  0  0  0  0  0  0
   -7.6283  -19.9160   34.1535 H   0  0  0  0  0  0  0  0  0  0  0  0
   -7.0100  -13.6561   30.7039 H   0  0  0  0  0  0  0  0  0  0  0  0
   -5.8198  -13.4905   30.9586 H   0  0  0  0  0  0  0  0  0  0  0  0
   -6.3215  -10.1050   29.3804 H   0  0  0  0  0  0  0  0  0  0  0  0
   -7.4385  -10.1163   30.3673 H   0  0  0  0  0  0  0  0  0  0  0  0
   -5.2371   -8.1981   32.1455 H   0  0  0  0  0  0  0  0  0  0  0  0
   -6.0903   -7.6815   31.4269 H   0  0  0  0  0  0  0  0  0  0  0  0
   -3.5964   -8.5128   30.8978 H   0  0  0  0  0  0  0  0  0  0  0  0
   -3.7288   -8.0042   32.1870 H   0  0  0  0  0  0  0  0  0  0  0  0
   -5.0908   -9.8593   33.2586 H   0  0  0  0  0  0  0  0  0  0  0  0
   -1.8397  -10.1227   30.7881 H   0  0  0  0  0  0  0  0  0  0  0  0
   -0.5774   -7.9735   30.5407 H   0  0  0  0  0  0  0  0  0  0  0  0
   -3.1601   -8.8672   34.6823 H   0  0  0  0  0  0  0  0  0  0  0  0
    0.2985   -6.1689   34.8903 H   0  0  0  0  0  0  0  0  0  0  0  0
   -0.8859   -4.9466   35.3763 H   0  0  0  0  0  0  0  0  0  0  0  0
   -1.5707   -4.6214   32.9818 H   0  0  0  0  0  0  0  0  0  0  0  0
    0.1612   -4.3735   33.1795 H   0  0  0  0  0  0  0  0  0  0  0  0
   -7.2489  -15.3592   35.0501 H   0  0  0  0  0  0  0  0  0  0  0  0
   -4.6322  -16.9747   33.7557 H   0  0  0  0  0  0  0  0  0  0  0  0
  1  2  1  0
  2  3  2  0
  3  4  1  0
  4  5  2  0
  5  6  1  0
  6  7  1  0
  7  8  1  0
  8  9  1  0
  9 10  1  0
 10 11  1  0
 11 12  1  0
 12 13  1  0
 13 14  2  0
 14 15  1  0
 15 16  2  0
 16 17  1  0
 17 18  2  0
 17 19  1  0
 19 20  1  0
 20 21  1  0
 21 22  1  0
  6 23  2  0
 23 24  1  0
 24 25  1  0
 25  1  2  0
 24  4  1  0
 12  8  1  0
 18 13  1  0
 22 16  1  0
  1 26  1  0
  2 27  1  0
  7 28  1  0
  7 29  1  0
  9 30  1  0
  9 31  1  0
 10 32  1  0
 10 33  1  0
 11 34  1  0
 11 35  1  0
 12 36  1  0
 14 37  1  0
 15 38  1  0
 18 39  1  0
 20 40  1  0
 20 41  1  0
 21 42  1  0
 21 43  1  0
 23 44  1  0
 25 45  1  0
M  END
>  <Energy>  (275) 
926.02662452391451

>  <compound_id>  (275) 
76325

>  <target_id>  (275) 
1

>  <reference_id>  (275) 
107

>  <inspiration_ids>  (275) 
[107, 13]

>  <energy_score>  (275) 
800.334719132641

>  <distance_score>  (275) 
9.642947055981065

>  <path>  (275) 
/opt/xchem-fragalysis-2/maxwin/BulkDock/SCRATCH/511022/C76325-P107/C76325-P107.minimised.mol

>  <scratch_subdir>  (275) 
/opt/xchem-fragalysis-2/maxwin/BulkDock/SCRATCH/511022/C76325-P107

>  <fragmenstein_runtime>  (275) 
17.174771308898926

>  <fragmenstein_outcome>  (275) 
too moved

>  <fragmenstein_mode>  (275) 
expansion

>  <fragmenstein_error>  (275) 


$$$$
C76325-P13
     RDKit          3D

 45 49  0  0  0  0  0  0  0  0999 V2000
  -10.9942  -17.7466   35.3967 C   0  0  0  0  0  0  0  0  0  0  0  0
  -12.1010  -16.7330   35.3177 C   0  0  0  0  0  0  0  0  0  0  0  0
  -12.1031  -15.6114   34.6478 N   0  0  0  0  0  0  0  0  0  0  0  0
  -10.9197  -15.3641   33.9758 C   0  0  0  0  0  0  0  0  0  0  0  0
  -10.3369  -14.2670   33.4454 N   0  0  0  0  0  0  0  0  0  0  0  0
   -9.1072  -14.2606   32.8701 C   0  0  0  0  0  0  0  0  0  0  0  0
   -7.6607  -12.9334   32.9282 C   0  0  0  0  0  0  0  0  0  0  0  0
   -7.2374  -11.4219   32.6343 N   0  0  0  0  0  0  0  0  0  0  0  0
   -8.6724  -10.2565   32.1626 C   0  0  0  0  0  0  0  0  0  0  0  0
   -7.9804   -8.1590   33.0077 C   0  0  0  0  0  0  0  0  0  0  0  0
   -6.0145   -9.3360   33.4755 C   0  0  0  0  0  0  0  0  0  0  0  0
   -5.6218  -10.2408   32.1955 C   0  0  0  0  0  0  0  0  0  0  0  0
   -5.7568   -8.5625   30.9680 C   0  0  0  0  0  0  0  0  0  0  0  0
   -6.4440   -6.8555   31.5407 C   0  0  0  0  0  0  0  0  0  0  0  0
   -6.0751   -5.1727   30.7238 C   0  0  0  0  0  0  0  0  0  0  0  0
   -5.9658   -4.7822   29.4140 C   0  0  0  0  0  0  0  0  0  0  0  0
   -6.2233   -6.0680   28.8383 C   0  0  0  0  0  0  0  0  0  0  0  0
   -5.7665   -7.9020   29.1704 C   0  0  0  0  0  0  0  0  0  0  0  0
   -7.3437   -5.4648   27.6713 O   0  0  0  0  0  0  0  0  0  0  0  0
   -8.1735   -4.1808   27.6628 C   0  0  0  0  0  0  0  0  0  0  0  0
   -7.6299   -3.2541   28.6784 C   0  0  0  0  0  0  0  0  0  0  0  0
   -6.2350   -3.6275   28.8583 O   0  0  0  0  0  0  0  0  0  0  0  0
   -9.2826  -15.6429   32.8078 C   0  0  0  0  0  0  0  0  0  0  0  0
   -9.9480  -16.2583   33.9165 N   0  0  0  0  0  0  0  0  0  0  0  0
   -9.9407  -17.4735   34.6103 C   0  0  0  0  0  0  0  0  0  0  0  0
  -11.1256  -18.6460   35.9760 H   0  0  0  0  0  0  0  0  0  0  0  0
  -13.0032  -16.9964   35.8935 H   0  0  0  0  0  0  0  0  0  0  0  0
   -8.5743  -12.3753   33.0300 H   0  0  0  0  0  0  0  0  0  0  0  0
   -7.0924  -13.3105   32.0554 H   0  0  0  0  0  0  0  0  0  0  0  0
   -8.5589  -10.4991   31.0654 H   0  0  0  0  0  0  0  0  0  0  0  0
   -9.6247  -10.6778   32.2814 H   0  0  0  0  0  0  0  0  0  0  0  0
   -7.9595   -7.3962   33.8606 H   0  0  0  0  0  0  0  0  0  0  0  0
   -9.0775   -8.1271   33.4285 H   0  0  0  0  0  0  0  0  0  0  0  0
   -5.9010  -10.1576   34.2643 H   0  0  0  0  0  0  0  0  0  0  0  0
   -5.1258   -8.6818   33.5420 H   0  0  0  0  0  0  0  0  0  0  0  0
   -5.6944  -10.8876   31.3316 H   0  0  0  0  0  0  0  0  0  0  0  0
   -6.9612   -6.7665   32.4503 H   0  0  0  0  0  0  0  0  0  0  0  0
   -5.8499   -4.2489   31.3462 H   0  0  0  0  0  0  0  0  0  0  0  0
   -6.1596   -8.6720   28.4990 H   0  0  0  0  0  0  0  0  0  0  0  0
   -9.2566   -4.3879   27.6235 H   0  0  0  0  0  0  0  0  0  0  0  0
   -8.2341   -3.6772   26.7020 H   0  0  0  0  0  0  0  0  0  0  0  0
   -8.1450   -3.2015   29.6418 H   0  0  0  0  0  0  0  0  0  0  0  0
   -7.7220   -2.2411   28.2697 H   0  0  0  0  0  0  0  0  0  0  0  0
   -8.5656  -16.3302   32.4677 H   0  0  0  0  0  0  0  0  0  0  0  0
   -9.1413  -18.1721   34.4335 H   0  0  0  0  0  0  0  0  0  0  0  0
  1  2  1  0
  2  3  2  0
  3  4  1  0
  4  5  2  0
  5  6  1  0
  6  7  1  0
  7  8  1  0
  8  9  1  0
  9 10  1  0
 10 11  1  0
 11 12  1  0
 12 13  1  0
 13 14  2  0
 14 15  1  0
 15 16  2  0
 16 17  1  0
 17 18  2  0
 17 19  1  0
 19 20  1  0
 20 21  1  0
 21 22  1  0
  6 23  2  0
 23 24  1  0
 24 25  1  0
 25  1  2  0
 24  4  1  0
 12  8  1  0
 18 13  1  0
 22 16  1  0
  1 26  1  0
  2 27  1  0
  7 28  1  0
  7 29  1  0
  9 30  1  0
  9 31  1  0
 10 32  1  0
 10 33  1  0
 11 34  1  0
 11 35  1  0
 12 36  1  0
 14 37  1  0
 15 38  1  0
 18 39  1  0
 20 40  1  0
 20 41  1  0
 21 42  1  0
 21 43  1  0
 23 44  1  0
 25 45  1  0
M  END
>  <Energy>  (276) 
1621.9017592309631

>  <compound_id>  (276) 
76325

>  <target_id>  (276) 
1

>  <reference_id>  (276) 
13

>  <inspiration_ids>  (276) 
[107, 13]

>  <energy_score>  (276) 
1496.2098538397354

>  <distance_score>  (276) 
8.913719185764155

>  <path>  (276) 
/opt/xchem-fragalysis-2/maxwin/BulkDock/SCRATCH/511022/C76325-P13/C76325-P13.minimised.mol

>  <scratch_subdir>  (276) 
/opt/xchem-fragalysis-2/maxwin/BulkDock/SCRATCH/511022/C76325-P13

>  <fragmenstein_runtime>  (276) 
23.047178983688354

>  <fragmenstein_outcome>  (276) 
too moved

>  <fragmenstein_mode>  (276) 
expansion

>  <fragmenstein_error>  (276) 


$$$$
C76334-P107
     RDKit          3D

 37 40  0  0  0  0  0  0  0  0999 V2000
   -5.3940   -5.5014   26.8731 C   0  0  0  0  0  0  0  0  0  0  0  0
   -5.6826   -5.8024   24.7858 N   0  0  0  0  0  0  0  0  0  0  0  0
   -5.6834   -7.3739   24.1076 C   0  0  0  0  0  0  0  0  0  0  0  0
   -4.8548   -7.9708   23.5828 O   0  0  0  0  0  0  0  0  0  0  0  0
   -7.3259   -8.7342   24.5182 C   0  0  0  0  0  0  0  0  0  0  0  0
   -8.7865   -8.8464   23.1441 C   0  0  0  0  0  0  0  0  0  0  0  0
   -9.9574   -9.6359   22.9917 C   0  0  0  0  0  0  0  0  0  0  0  0
  -10.1512  -10.7791   23.9455 N   0  0  0  0  0  0  0  0  0  0  0  0
  -11.3677  -11.3956   24.1983 C   0  0  0  0  0  0  0  0  0  0  0  0
  -11.2337  -12.1044   25.3461 C   0  0  0  0  0  0  0  0  0  0  0  0
   -9.9439  -12.0164   25.8348 N   0  0  0  0  0  0  0  0  0  0  0  0
   -9.1189  -11.0747   25.2682 C   0  0  0  0  0  0  0  0  0  0  0  0
   -7.4233  -10.3280   25.2857 N   0  0  0  0  0  0  0  0  0  0  0  0
   -3.7732   -4.4806   24.4355 C   0  0  0  0  0  0  0  0  0  0  0  0
   -3.5326   -2.9224   24.1016 C   0  0  0  0  0  0  0  0  0  0  0  0
   -3.6531   -1.6811   25.4107 C   0  0  0  0  0  0  0  0  0  0  0  0
   -3.1204   -1.4108   26.6953 C   0  0  0  0  0  0  0  0  0  0  0  0
   -2.4288   -2.4565   26.7033 C   0  0  0  0  0  0  0  0  0  0  0  0
   -2.8628   -3.8150   25.4532 C   0  0  0  0  0  0  0  0  0  0  0  0
   -1.3530   -2.6433   27.6152 O   0  0  0  0  0  0  0  0  0  0  0  0
   -1.2778   -1.5819   28.5702 C   0  0  0  0  0  0  0  0  0  0  0  0
   -1.5443   -0.2380   27.9209 C   0  0  0  0  0  0  0  0  0  0  0  0
   -2.8083   -0.2250   27.2471 O   0  0  0  0  0  0  0  0  0  0  0  0
   -6.5189   -5.7962   26.8200 H   0  0  0  0  0  0  0  0  0  0  0  0
   -5.1627   -4.1832   27.5646 H   0  0  0  0  0  0  0  0  0  0  0  0
   -6.1279   -5.6044   27.8165 H   0  0  0  0  0  0  0  0  0  0  0  0
   -8.2288   -9.8384   23.1282 H   0  0  0  0  0  0  0  0  0  0  0  0
  -10.8224   -9.3245   22.4192 H   0  0  0  0  0  0  0  0  0  0  0  0
  -12.2078  -11.2398   23.5389 H   0  0  0  0  0  0  0  0  0  0  0  0
  -11.9665  -12.7261   25.8431 H   0  0  0  0  0  0  0  0  0  0  0  0
   -3.1223   -2.6444   23.1255 H   0  0  0  0  0  0  0  0  0  0  0  0
   -3.6769   -0.6549   25.1794 H   0  0  0  0  0  0  0  0  0  0  0  0
   -2.3399   -4.9752   26.0289 H   0  0  0  0  0  0  0  0  0  0  0  0
   -0.2761   -1.5965   29.0110 H   0  0  0  0  0  0  0  0  0  0  0  0
   -1.9938   -1.7950   29.3709 H   0  0  0  0  0  0  0  0  0  0  0  0
   -1.5578    0.5537   28.6769 H   0  0  0  0  0  0  0  0  0  0  0  0
   -0.7663    0.0114   27.1920 H   0  0  0  0  0  0  0  0  0  0  0  0
  1  2  1  0
  2  3  1  0
  3  4  2  0
  3  5  1  0
  5  6  1  0
  6  7  2  0
  7  8  1  0
  8  9  1  0
  9 10  2  0
 10 11  1  0
 11 12  2  0
 12 13  1  0
  2 14  1  0
 14 15  2  0
 15 16  1  0
 16 17  2  0
 17 18  1  0
 18 19  2  0
 18 20  1  0
 20 21  1  0
 21 22  1  0
 22 23  1  0
 13  5  2  0
 19 14  1  0
 12  8  1  0
 23 17  1  0
  1 24  1  0
  1 25  1  0
  1 26  1  0
  6 27  1  0
  7 28  1  0
  9 29  1  0
 10 30  1  0
 15 31  1  0
 16 32  1  0
 19 33  1  0
 21 34  1  0
 21 35  1  0
 22 36  1  0
 22 37  1  0
M  END
>  <Energy>  (277) 
1640.2017967358113

>  <compound_id>  (277) 
76334

>  <target_id>  (277) 
1

>  <reference_id>  (277) 
107

>  <inspiration_ids>  (277) 
[107, 13]

>  <energy_score>  (277) 
1485.0480410276107

>  <distance_score>  (277) 
11.675270434883299

>  <path>  (277) 
/opt/xchem-fragalysis-2/maxwin/BulkDock/SCRATCH/511022/C76334-P107/C76334-P107.minimised.mol

>  <scratch_subdir>  (277) 
/opt/xchem-fragalysis-2/maxwin/BulkDock/SCRATCH/511022/C76334-P107

>  <fragmenstein_runtime>  (277) 
15.093906879425049

>  <fragmenstein_outcome>  (277) 
too moved

>  <fragmenstein_mode>  (277) 
expansion

>  <fragmenstein_error>  (277) 


$$$$
C76334-P13
     RDKit          3D

 37 40  0  0  0  0  0  0  0  0999 V2000
   -7.2147   -9.8680   29.9471 C   0  0  0  0  0  0  0  0  0  0  0  0
   -6.5184  -10.0516   28.9032 N   0  0  0  0  0  0  0  0  0  0  0  0
   -5.8204  -11.8043   28.8954 C   0  0  0  0  0  0  0  0  0  0  0  0
   -4.7715  -12.2241   29.3239 O   0  0  0  0  0  0  0  0  0  0  0  0
   -6.9668  -13.3170   28.2498 C   0  0  0  0  0  0  0  0  0  0  0  0
   -7.2157  -13.6143   26.8348 C   0  0  0  0  0  0  0  0  0  0  0  0
   -7.8661  -14.7571   26.5053 C   0  0  0  0  0  0  0  0  0  0  0  0
   -8.5936  -15.3740   27.4774 N   0  0  0  0  0  0  0  0  0  0  0  0
   -9.7687  -16.0634   27.3546 C   0  0  0  0  0  0  0  0  0  0  0  0
  -10.3439  -15.9647   28.5884 C   0  0  0  0  0  0  0  0  0  0  0  0
   -9.4744  -15.3460   29.4561 N   0  0  0  0  0  0  0  0  0  0  0  0
   -8.3780  -15.0585   28.7887 C   0  0  0  0  0  0  0  0  0  0  0  0
   -7.2986  -14.2766   29.1467 N   0  0  0  0  0  0  0  0  0  0  0  0
   -5.5891   -8.4005   29.5057 C   0  0  0  0  0  0  0  0  0  0  0  0
   -4.7380   -8.6452   31.2308 C   0  0  0  0  0  0  0  0  0  0  0  0
   -3.4010   -8.2236   31.9703 C   0  0  0  0  0  0  0  0  0  0  0  0
   -2.3662   -7.6003   31.3077 C   0  0  0  0  0  0  0  0  0  0  0  0
   -2.5921   -7.4030   29.8872 C   0  0  0  0  0  0  0  0  0  0  0  0
   -4.1196   -7.6915   28.9707 C   0  0  0  0  0  0  0  0  0  0  0  0
   -1.4052   -7.3911   29.1726 O   0  0  0  0  0  0  0  0  0  0  0  0
   -0.2944   -7.9655   29.9316 C   0  0  0  0  0  0  0  0  0  0  0  0
   -0.1151   -7.1235   31.1713 C   0  0  0  0  0  0  0  0  0  0  0  0
   -1.2465   -7.3055   32.0127 O   0  0  0  0  0  0  0  0  0  0  0  0
   -6.5365   -9.5109   30.5671 H   0  0  0  0  0  0  0  0  0  0  0  0
   -8.0572   -9.4822   29.3503 H   0  0  0  0  0  0  0  0  0  0  0  0
   -7.8429  -10.5013   30.5352 H   0  0  0  0  0  0  0  0  0  0  0  0
   -6.7885  -12.8849   26.1715 H   0  0  0  0  0  0  0  0  0  0  0  0
   -8.0296  -15.0959   25.4934 H   0  0  0  0  0  0  0  0  0  0  0  0
  -10.1501  -16.3906   26.4032 H   0  0  0  0  0  0  0  0  0  0  0  0
  -11.3304  -16.2797   28.9066 H   0  0  0  0  0  0  0  0  0  0  0  0
   -5.2037   -9.3387   31.8807 H   0  0  0  0  0  0  0  0  0  0  0  0
   -3.2989   -8.4356   33.0320 H   0  0  0  0  0  0  0  0  0  0  0  0
   -3.9372   -7.6978   27.8759 H   0  0  0  0  0  0  0  0  0  0  0  0
    0.6197   -7.9570   29.3296 H   0  0  0  0  0  0  0  0  0  0  0  0
   -0.5043   -9.0204   30.1535 H   0  0  0  0  0  0  0  0  0  0  0  0
   -0.0247   -6.0575   30.9334 H   0  0  0  0  0  0  0  0  0  0  0  0
    0.7738   -7.4362   31.7273 H   0  0  0  0  0  0  0  0  0  0  0  0
  1  2  1  0
  2  3  1  0
  3  4  2  0
  3  5  1  0
  5  6  1  0
  6  7  2  0
  7  8  1  0
  8  9  1  0
  9 10  2  0
 10 11  1  0
 11 12  2  0
 12 13  1  0
  2 14  1  0
 14 15  2  0
 15 16  1  0
 16 17  2  0
 17 18  1  0
 18 19  2  0
 18 20  1  0
 20 21  1  0
 21 22  1  0
 22 23  1  0
 13  5  2  0
 19 14  1  0
 12  8  1  0
 23 17  1  0
  1 24  1  0
  1 25  1  0
  1 26  1  0
  6 27  1  0
  7 28  1  0
  9 29  1  0
 10 30  1  0
 15 31  1  0
 16 32  1  0
 19 33  1  0
 21 34  1  0
 21 35  1  0
 22 36  1  0
 22 37  1  0
M  END
>  <Energy>  (278) 
670.79433487255756

>  <compound_id>  (278) 
76334

>  <target_id>  (278) 
1

>  <reference_id>  (278) 
13

>  <inspiration_ids>  (278) 
[107, 13]

>  <energy_score>  (278) 
515.6405791643242

>  <distance_score>  (278) 
10.136981438198484

>  <path>  (278) 
/opt/xchem-fragalysis-2/maxwin/BulkDock/SCRATCH/511022/C76334-P13/C76334-P13.minimised.mol

>  <scratch_subdir>  (278) 
/opt/xchem-fragalysis-2/maxwin/BulkDock/SCRATCH/511022/C76334-P13

>  <fragmenstein_runtime>  (278) 
16.36667037010193

>  <fragmenstein_outcome>  (278) 
too moved

>  <fragmenstein_mode>  (278) 
expansion

>  <fragmenstein_error>  (278) 


$$$$
C76337-P107
     RDKit          3D

 37 40  0  0  0  0  0  0  0  0999 V2000
   -6.7420  -14.1920   29.1046 O   0  0  0  0  0  0  0  0  0  0  0  0
   -5.9578  -14.3683   29.9950 C   0  0  0  0  0  0  0  0  0  0  0  0
   -5.4149  -12.5763   30.7950 N   0  0  0  0  0  0  0  0  0  0  0  0
   -6.0278  -10.6624   30.4989 C   0  0  0  0  0  0  0  0  0  0  0  0
   -6.8017  -10.0347   29.5851 C   0  0  0  0  0  0  0  0  0  0  0  0
   -6.5013   -8.8300   28.7532 C   0  0  0  0  0  0  0  0  0  0  0  0
   -5.5176   -7.5157   28.7530 C   0  0  0  0  0  0  0  0  0  0  0  0
   -4.4782   -7.8464   29.3576 C   0  0  0  0  0  0  0  0  0  0  0  0
   -5.3491   -8.8294   30.7763 C   0  0  0  0  0  0  0  0  0  0  0  0
   -2.8558   -7.0746   29.1904 O   0  0  0  0  0  0  0  0  0  0  0  0
   -1.9624   -5.5818   28.3011 C   0  0  0  0  0  0  0  0  0  0  0  0
   -2.7864   -3.7111   28.8462 C   0  0  0  0  0  0  0  0  0  0  0  0
   -4.9702   -3.8851   28.6515 C   0  0  0  0  0  0  0  0  0  0  0  0
   -5.9513   -5.6402   28.8275 O   0  0  0  0  0  0  0  0  0  0  0  0
   -5.7391  -16.4723   30.3349 C   0  0  0  0  0  0  0  0  0  0  0  0
   -5.2645  -17.1818   31.6030 C   0  0  0  0  0  0  0  0  0  0  0  0
   -6.2295  -17.6475   32.6171 N   0  0  0  0  0  0  0  0  0  0  0  0
   -7.3357  -18.1394   32.0500 C   0  0  0  0  0  0  0  0  0  0  0  0
   -8.8400  -19.2247   32.6756 N   0  0  0  0  0  0  0  0  0  0  0  0
   -9.8441  -20.1784   31.6485 C   0  0  0  0  0  0  0  0  0  0  0  0
   -9.6593  -20.3319   29.5494 C   0  0  0  0  0  0  0  0  0  0  0  0
   -8.0259  -19.2604   29.0080 C   0  0  0  0  0  0  0  0  0  0  0  0
   -6.7397  -18.2793   30.2601 N   0  0  0  0  0  0  0  0  0  0  0  0
   -4.7407  -12.7345   31.4290 H   0  0  0  0  0  0  0  0  0  0  0  0
   -7.8841   -9.9839   29.7301 H   0  0  0  0  0  0  0  0  0  0  0  0
   -6.8610   -9.0958   27.7352 H   0  0  0  0  0  0  0  0  0  0  0  0
   -4.6470   -8.8083   31.6790 H   0  0  0  0  0  0  0  0  0  0  0  0
   -0.9812   -5.6460   28.8049 H   0  0  0  0  0  0  0  0  0  0  0  0
   -1.8787   -5.9341   27.2641 H   0  0  0  0  0  0  0  0  0  0  0  0
   -2.3678   -2.7738   28.3849 H   0  0  0  0  0  0  0  0  0  0  0  0
   -2.4202   -3.4911   29.9014 H   0  0  0  0  0  0  0  0  0  0  0  0
   -5.3054   -3.2692   27.8229 H   0  0  0  0  0  0  0  0  0  0  0  0
   -5.4673   -3.4411   29.5430 H   0  0  0  0  0  0  0  0  0  0  0  0
   -4.2549  -17.1198   32.0000 H   0  0  0  0  0  0  0  0  0  0  0  0
  -10.6624  -20.7667   32.1011 H   0  0  0  0  0  0  0  0  0  0  0  0
  -10.4211  -20.9444   29.0474 H   0  0  0  0  0  0  0  0  0  0  0  0
   -7.6108  -18.9981   28.0498 H   0  0  0  0  0  0  0  0  0  0  0  0
  1  2  2  0
  2  3  1  0
  3  4  1  0
  4  5  2  0
  5  6  1  0
  6  7  2  0
  7  8  1  0
  8  9  2  0
  8 10  1  0
 10 11  1  0
 11 12  1  0
 12 13  1  0
 13 14  1  0
  2 15  1  0
 15 16  2  0
 16 17  1  0
 17 18  2  0
 18 19  1  0
 19 20  2  0
 20 21  1  0
 21 22  2  0
 22 23  1  0
  9  4  1  0
 23 15  1  0
 14  7  1  0
 23 18  1  0
  3 24  1  0
  5 25  1  0
  6 26  1  0
  9 27  1  0
 11 28  1  0
 11 29  1  0
 12 30  1  0
 12 31  1  0
 13 32  1  0
 13 33  1  0
 16 34  1  0
 20 35  1  0
 21 36  1  0
 22 37  1  0
M  END
>  <Energy>  (279) 
2491.8821702658674

>  <compound_id>  (279) 
76337

>  <target_id>  (279) 
1

>  <reference_id>  (279) 
107

>  <inspiration_ids>  (279) 
[107, 13]

>  <energy_score>  (279) 
2397.502672087742

>  <distance_score>  (279) 
8.661809231859479

>  <path>  (279) 
/opt/xchem-fragalysis-2/maxwin/BulkDock/SCRATCH/511022/C76337-P107/C76337-P107.minimised.mol

>  <scratch_subdir>  (279) 
/opt/xchem-fragalysis-2/maxwin/BulkDock/SCRATCH/511022/C76337-P107

>  <fragmenstein_runtime>  (279) 
31.393231630325317

>  <fragmenstein_outcome>  (279) 
too moved

>  <fragmenstein_mode>  (279) 
expansion

>  <fragmenstein_error>  (279) 


$$$$
C76337-P13
     RDKit          3D

 37 40  0  0  0  0  0  0  0  0999 V2000
   -8.7523  -12.4596   33.6716 O   0  0  0  0  0  0  0  0  0  0  0  0
   -7.9816  -12.9246   32.9898 C   0  0  0  0  0  0  0  0  0  0  0  0
   -6.4816  -12.0128   32.8455 N   0  0  0  0  0  0  0  0  0  0  0  0
   -5.8363  -10.4722   33.7278 C   0  0  0  0  0  0  0  0  0  0  0  0
   -4.9927   -9.1149   33.4055 C   0  0  0  0  0  0  0  0  0  0  0  0
   -3.8148   -8.6014   34.1806 C   0  0  0  0  0  0  0  0  0  0  0  0
   -3.6794   -8.6670   35.5125 C   0  0  0  0  0  0  0  0  0  0  0  0
   -4.5931   -9.5069   36.0658 C   0  0  0  0  0  0  0  0  0  0  0  0
   -5.5063  -10.4087   35.2221 C   0  0  0  0  0  0  0  0  0  0  0  0
   -4.7740   -9.5714   37.4337 O   0  0  0  0  0  0  0  0  0  0  0  0
   -4.7014   -8.2834   38.0561 C   0  0  0  0  0  0  0  0  0  0  0  0
   -3.2690   -7.9259   38.4235 C   0  0  0  0  0  0  0  0  0  0  0  0
   -2.2816   -8.2675   37.3177 C   0  0  0  0  0  0  0  0  0  0  0  0
   -2.7428   -7.8490   36.0470 O   0  0  0  0  0  0  0  0  0  0  0  0
   -8.6356  -14.7298   32.3857 C   0  0  0  0  0  0  0  0  0  0  0  0
   -9.9284  -15.1514   33.1374 C   0  0  0  0  0  0  0  0  0  0  0  0
   -9.9923  -16.3381   34.0704 N   0  0  0  0  0  0  0  0  0  0  0  0
   -9.4146  -17.4119   33.5768 C   0  0  0  0  0  0  0  0  0  0  0  0
  -10.1323  -18.9192   33.0785 N   0  0  0  0  0  0  0  0  0  0  0  0
  -10.5589  -19.3768   31.5401 C   0  0  0  0  0  0  0  0  0  0  0  0
  -10.2117  -17.8862   29.8030 C   0  0  0  0  0  0  0  0  0  0  0  0
   -8.3318  -17.8804   30.6843 C   0  0  0  0  0  0  0  0  0  0  0  0
   -8.3789  -16.6281   32.3378 N   0  0  0  0  0  0  0  0  0  0  0  0
   -5.9695  -12.4238   32.2188 H   0  0  0  0  0  0  0  0  0  0  0  0
   -4.8167   -8.7844   32.3555 H   0  0  0  0  0  0  0  0  0  0  0  0
   -2.9417   -8.2290   33.6458 H   0  0  0  0  0  0  0  0  0  0  0  0
   -6.1765  -10.9323   35.8968 H   0  0  0  0  0  0  0  0  0  0  0  0
   -5.1669   -7.5064   37.4338 H   0  0  0  0  0  0  0  0  0  0  0  0
   -5.3008   -8.3318   38.9725 H   0  0  0  0  0  0  0  0  0  0  0  0
   -3.2267   -6.8548   38.6524 H   0  0  0  0  0  0  0  0  0  0  0  0
   -2.9687   -8.4611   39.3318 H   0  0  0  0  0  0  0  0  0  0  0  0
   -1.3352   -7.7507   37.5133 H   0  0  0  0  0  0  0  0  0  0  0  0
   -2.0417   -9.3400   37.3130 H   0  0  0  0  0  0  0  0  0  0  0  0
  -10.7142  -14.4684   33.3898 H   0  0  0  0  0  0  0  0  0  0  0  0
  -10.9652  -20.4083   31.1871 H   0  0  0  0  0  0  0  0  0  0  0  0
  -11.0143  -18.1418   29.1392 H   0  0  0  0  0  0  0  0  0  0  0  0
   -7.4993  -18.5740   30.9920 H   0  0  0  0  0  0  0  0  0  0  0  0
  1  2  2  0
  2  3  1  0
  3  4  1  0
  4  5  2  0
  5  6  1  0
  6  7  2  0
  7  8  1  0
  8  9  2  0
  8 10  1  0
 10 11  1  0
 11 12  1  0
 12 13  1  0
 13 14  1  0
  2 15  1  0
 15 16  2  0
 16 17  1  0
 17 18  2  0
 18 19  1  0
 19 20  2  0
 20 21  1  0
 21 22  2  0
 22 23  1  0
  9  4  1  0
 23 15  1  0
 14  7  1  0
 23 18  1  0
  3 24  1  0
  5 25  1  0
  6 26  1  0
  9 27  1  0
 11 28  1  0
 11 29  1  0
 12 30  1  0
 12 31  1  0
 13 32  1  0
 13 33  1  0
 16 34  1  0
 20 35  1  0
 21 36  1  0
 22 37  1  0
M  END
>  <Energy>  (280) 
1455.5223248678499

>  <compound_id>  (280) 
76337

>  <target_id>  (280) 
1

>  <reference_id>  (280) 
13

>  <inspiration_ids>  (280) 
[107, 13]

>  <energy_score>  (280) 
1361.142826689772

>  <distance_score>  (280) 
10.42484621940256

>  <path>  (280) 
/opt/xchem-fragalysis-2/maxwin/BulkDock/SCRATCH/511022/C76337-P13/C76337-P13.minimised.mol

>  <scratch_subdir>  (280) 
/opt/xchem-fragalysis-2/maxwin/BulkDock/SCRATCH/511022/C76337-P13

>  <fragmenstein_runtime>  (280) 
17.116442680358887

>  <fragmenstein_outcome>  (280) 
too moved

>  <fragmenstein_mode>  (280) 
expansion

>  <fragmenstein_error>  (280) 


$$$$
C76338-P107
     RDKit          3D

 39 43  0  0  0  0  0  0  0  0999 V2000
   -5.1605  -18.6801   32.5029 C   0  0  0  0  0  0  0  0  0  0  0  0
   -5.9329  -19.3163   33.6077 C   0  0  0  0  0  0  0  0  0  0  0  0
   -6.9898  -18.8325   34.1803 N   0  0  0  0  0  0  0  0  0  0  0  0
   -7.3713  -17.5935   33.7610 C   0  0  0  0  0  0  0  0  0  0  0  0
   -8.1704  -16.7355   34.3142 N   0  0  0  0  0  0  0  0  0  0  0  0
   -7.2366  -15.7530   34.1711 C   0  0  0  0  0  0  0  0  0  0  0  0
   -6.1461  -15.9402   35.3018 C   0  0  0  0  0  0  0  0  0  0  0  0
   -4.7225  -15.9796   35.1587 C   0  0  0  0  0  0  0  0  0  0  0  0
   -4.0845  -16.2347   36.3553 C   0  0  0  0  0  0  0  0  0  0  0  0
   -5.1833  -16.4471   37.6453 S   0  0  0  0  0  0  0  0  0  0  0  0
   -6.5204  -16.2186   36.6097 C   0  0  0  0  0  0  0  0  0  0  0  0
   -7.4008  -15.2009   32.6840 C   0  0  0  0  0  0  0  0  0  0  0  0
   -6.7333  -14.0264   31.3508 N   0  0  0  0  0  0  0  0  0  0  0  0
   -5.5593  -12.5537   31.0891 C   0  0  0  0  0  0  0  0  0  0  0  0
   -5.8584  -11.3481   31.6980 C   0  0  0  0  0  0  0  0  0  0  0  0
   -5.0492  -10.0638   32.3878 C   0  0  0  0  0  0  0  0  0  0  0  0
   -3.8044   -9.6531   32.0944 C   0  0  0  0  0  0  0  0  0  0  0  0
   -3.2656  -10.6028   31.1942 C   0  0  0  0  0  0  0  0  0  0  0  0
   -4.2239  -12.0099   30.5081 C   0  0  0  0  0  0  0  0  0  0  0  0
   -1.9935  -10.1897   30.7437 O   0  0  0  0  0  0  0  0  0  0  0  0
   -1.4793   -9.0125   31.4752 C   0  0  0  0  0  0  0  0  0  0  0  0
   -2.3690   -7.9210   31.8605 C   0  0  0  0  0  0  0  0  0  0  0  0
   -3.3584   -8.5312   32.6483 O   0  0  0  0  0  0  0  0  0  0  0  0
   -6.6107  -16.7990   32.8375 N   0  0  0  0  0  0  0  0  0  0  0  0
   -5.5673  -17.4553   32.1336 C   0  0  0  0  0  0  0  0  0  0  0  0
   -4.4221  -19.2664   31.9770 H   0  0  0  0  0  0  0  0  0  0  0  0
   -5.5728  -20.3121   33.9139 H   0  0  0  0  0  0  0  0  0  0  0  0
   -4.1687  -15.8465   34.2422 H   0  0  0  0  0  0  0  0  0  0  0  0
   -3.0206  -16.3174   36.5300 H   0  0  0  0  0  0  0  0  0  0  0  0
   -7.5317  -16.3118   36.9845 H   0  0  0  0  0  0  0  0  0  0  0  0
   -6.1696  -14.5904   30.7004 H   0  0  0  0  0  0  0  0  0  0  0  0
   -6.1649  -10.7653   30.7556 H   0  0  0  0  0  0  0  0  0  0  0  0
   -5.4144   -9.6781   33.3459 H   0  0  0  0  0  0  0  0  0  0  0  0
   -3.6847  -12.5435   29.7316 H   0  0  0  0  0  0  0  0  0  0  0  0
   -1.2277   -9.3254   32.4933 H   0  0  0  0  0  0  0  0  0  0  0  0
   -0.6917   -8.5644   30.8564 H   0  0  0  0  0  0  0  0  0  0  0  0
   -2.7543   -7.4056   30.9979 H   0  0  0  0  0  0  0  0  0  0  0  0
   -1.8188   -7.1898   32.4659 H   0  0  0  0  0  0  0  0  0  0  0  0
   -5.1689  -16.9997   31.2488 H   0  0  0  0  0  0  0  0  0  0  0  0
  1  2  1  0
  2  3  2  0
  3  4  1  0
  4  5  2  0
  5  6  1  0
  6  7  1  0
  7  8  1  0
  8  9  2  0
  9 10  1  0
 10 11  1  0
  6 12  2  0
 12 13  1  0
 13 14  1  0
 14 15  2  0
 15 16  1  0
 16 17  2  0
 17 18  1  0
 18 19  2  0
 18 20  1  0
 20 21  1  0
 21 22  1  0
 22 23  1  0
 12 24  1  0
 24 25  1  0
 25  1  2  0
 24  4  1  0
 11  7  2  0
 19 14  1  0
 23 17  1  0
  1 26  1  0
  2 27  1  0
  8 28  1  0
  9 29  1  0
 11 30  1  0
 13 31  1  0
 15 32  1  0
 16 33  1  0
 19 34  1  0
 21 35  1  0
 21 36  1  0
 22 37  1  0
 22 38  1  0
 25 39  1  0
M  END
>  <Energy>  (281) 
675.6063151165481

>  <compound_id>  (281) 
76338

>  <target_id>  (281) 
1

>  <reference_id>  (281) 
107

>  <inspiration_ids>  (281) 
[107, 13]

>  <energy_score>  (281) 
515.3366185886657

>  <distance_score>  (281) 
10.649891135755537

>  <path>  (281) 
/opt/xchem-fragalysis-2/maxwin/BulkDock/SCRATCH/511022/C76338-P107/C76338-P107.minimised.mol

>  <scratch_subdir>  (281) 
/opt/xchem-fragalysis-2/maxwin/BulkDock/SCRATCH/511022/C76338-P107

>  <fragmenstein_runtime>  (281) 
11.619651079177856

>  <fragmenstein_outcome>  (281) 
too moved

>  <fragmenstein_mode>  (281) 
expansion

>  <fragmenstein_error>  (281) 


$$$$
C76338-P13
     RDKit          3D

 39 43  0  0  0  0  0  0  0  0999 V2000
  -10.9331  -14.4832   24.8766 C   0  0  0  0  0  0  0  0  0  0  0  0
  -10.7779  -15.9196   25.1696 C   0  0  0  0  0  0  0  0  0  0  0  0
   -9.9138  -16.4465   25.9753 N   0  0  0  0  0  0  0  0  0  0  0  0
   -9.0665  -15.5909   26.6098 C   0  0  0  0  0  0  0  0  0  0  0  0
   -8.2639  -15.8070   27.6403 N   0  0  0  0  0  0  0  0  0  0  0  0
   -7.6232  -14.5450   28.0357 C   0  0  0  0  0  0  0  0  0  0  0  0
   -6.3189  -14.8577   29.3261 C   0  0  0  0  0  0  0  0  0  0  0  0
   -6.1656  -14.2758   30.5821 C   0  0  0  0  0  0  0  0  0  0  0  0
   -5.4357  -15.1522   31.3399 C   0  0  0  0  0  0  0  0  0  0  0  0
   -4.3109  -16.2456   30.7442 S   0  0  0  0  0  0  0  0  0  0  0  0
   -5.5604  -16.3169   29.6278 C   0  0  0  0  0  0  0  0  0  0  0  0
   -7.8925  -13.7061   26.8465 C   0  0  0  0  0  0  0  0  0  0  0  0
   -7.2636  -12.6707   26.1667 N   0  0  0  0  0  0  0  0  0  0  0  0
   -7.3414  -11.9467   24.9077 C   0  0  0  0  0  0  0  0  0  0  0  0
   -7.2606  -12.6146   23.6925 C   0  0  0  0  0  0  0  0  0  0  0  0
   -6.9080  -11.9263   22.5160 C   0  0  0  0  0  0  0  0  0  0  0  0
   -6.6099  -10.5652   22.5333 C   0  0  0  0  0  0  0  0  0  0  0  0
   -6.7917   -9.8365   23.6946 C   0  0  0  0  0  0  0  0  0  0  0  0
   -7.2181  -10.5157   24.8497 C   0  0  0  0  0  0  0  0  0  0  0  0
   -6.4451   -8.5121   23.8080 O   0  0  0  0  0  0  0  0  0  0  0  0
   -5.8498   -7.9823   22.6169 C   0  0  0  0  0  0  0  0  0  0  0  0
   -5.1654   -9.0016   21.7418 C   0  0  0  0  0  0  0  0  0  0  0  0
   -6.0926  -10.0215   21.3878 O   0  0  0  0  0  0  0  0  0  0  0  0
   -9.0459  -14.2528   26.2902 N   0  0  0  0  0  0  0  0  0  0  0  0
  -10.0051  -13.7048   25.4436 C   0  0  0  0  0  0  0  0  0  0  0  0
  -11.7079  -14.1330   24.2115 H   0  0  0  0  0  0  0  0  0  0  0  0
  -11.4732  -16.5745   24.6207 H   0  0  0  0  0  0  0  0  0  0  0  0
   -6.8243  -13.6079   31.0787 H   0  0  0  0  0  0  0  0  0  0  0  0
   -5.9081  -15.5981   32.1457 H   0  0  0  0  0  0  0  0  0  0  0  0
   -5.5982  -17.2496   29.0744 H   0  0  0  0  0  0  0  0  0  0  0  0
   -6.5054  -12.2642   26.6909 H   0  0  0  0  0  0  0  0  0  0  0  0
   -7.3657  -13.6958   23.6537 H   0  0  0  0  0  0  0  0  0  0  0  0
   -6.7832  -12.4881   21.5928 H   0  0  0  0  0  0  0  0  0  0  0  0
   -7.3105   -9.8973   25.7362 H   0  0  0  0  0  0  0  0  0  0  0  0
   -6.6250   -7.4400   22.0649 H   0  0  0  0  0  0  0  0  0  0  0  0
   -5.0617   -7.2964   22.9231 H   0  0  0  0  0  0  0  0  0  0  0  0
   -4.8019   -8.5341   20.8209 H   0  0  0  0  0  0  0  0  0  0  0  0
   -4.3020   -9.4564   22.2458 H   0  0  0  0  0  0  0  0  0  0  0  0
   -9.9614  -12.6366   25.2771 H   0  0  0  0  0  0  0  0  0  0  0  0
  1  2  1  0
  2  3  2  0
  3  4  1  0
  4  5  2  0
  5  6  1  0
  6  7  1  0
  7  8  1  0
  8  9  2  0
  9 10  1  0
 10 11  1  0
  6 12  2  0
 12 13  1  0
 13 14  1  0
 14 15  2  0
 15 16  1  0
 16 17  2  0
 17 18  1  0
 18 19  2  0
 18 20  1  0
 20 21  1  0
 21 22  1  0
 22 23  1  0
 12 24  1  0
 24 25  1  0
 25  1  2  0
 24  4  1  0
 11  7  2  0
 19 14  1  0
 23 17  1  0
  1 26  1  0
  2 27  1  0
  8 28  1  0
  9 29  1  0
 11 30  1  0
 13 31  1  0
 15 32  1  0
 16 33  1  0
 19 34  1  0
 21 35  1  0
 21 36  1  0
 22 37  1  0
 22 38  1  0
 25 39  1  0
M  END
>  <Energy>  (282) 
270.9035177421348

>  <compound_id>  (282) 
76338

>  <target_id>  (282) 
1

>  <reference_id>  (282) 
13

>  <inspiration_ids>  (282) 
[107, 13]

>  <energy_score>  (282) 
110.63382121426298

>  <distance_score>  (282) 
11.984544081696306

>  <path>  (282) 
/opt/xchem-fragalysis-2/maxwin/BulkDock/SCRATCH/511022/C76338-P13/C76338-P13.minimised.mol

>  <scratch_subdir>  (282) 
/opt/xchem-fragalysis-2/maxwin/BulkDock/SCRATCH/511022/C76338-P13

>  <fragmenstein_runtime>  (282) 
16.466906309127808

>  <fragmenstein_outcome>  (282) 
too moved

>  <fragmenstein_mode>  (282) 
expansion

>  <fragmenstein_error>  (282) 


$$$$
C76338-P107
     RDKit          3D

 39 43  0  0  0  0  0  0  0  0999 V2000
   -5.1605  -18.6801   32.5029 C   0  0  0  0  0  0  0  0  0  0  0  0
   -5.9329  -19.3163   33.6077 C   0  0  0  0  0  0  0  0  0  0  0  0
   -6.9898  -18.8325   34.1803 N   0  0  0  0  0  0  0  0  0  0  0  0
   -7.3713  -17.5935   33.7610 C   0  0  0  0  0  0  0  0  0  0  0  0
   -8.1704  -16.7355   34.3142 N   0  0  0  0  0  0  0  0  0  0  0  0
   -7.2366  -15.7530   34.1711 C   0  0  0  0  0  0  0  0  0  0  0  0
   -6.1461  -15.9402   35.3018 C   0  0  0  0  0  0  0  0  0  0  0  0
   -4.7225  -15.9796   35.1587 C   0  0  0  0  0  0  0  0  0  0  0  0
   -4.0845  -16.2347   36.3553 C   0  0  0  0  0  0  0  0  0  0  0  0
   -5.1833  -16.4471   37.6453 S   0  0  0  0  0  0  0  0  0  0  0  0
   -6.5204  -16.2186   36.6097 C   0  0  0  0  0  0  0  0  0  0  0  0
   -7.4008  -15.2009   32.6840 C   0  0  0  0  0  0  0  0  0  0  0  0
   -6.7333  -14.0264   31.3508 N   0  0  0  0  0  0  0  0  0  0  0  0
   -5.5593  -12.5537   31.0891 C   0  0  0  0  0  0  0  0  0  0  0  0
   -5.8584  -11.3481   31.6980 C   0  0  0  0  0  0  0  0  0  0  0  0
   -5.0492  -10.0638   32.3878 C   0  0  0  0  0  0  0  0  0  0  0  0
   -3.8044   -9.6531   32.0944 C   0  0  0  0  0  0  0  0  0  0  0  0
   -3.2656  -10.6028   31.1942 C   0  0  0  0  0  0  0  0  0  0  0  0
   -4.2239  -12.0099   30.5081 C   0  0  0  0  0  0  0  0  0  0  0  0
   -1.9935  -10.1897   30.7437 O   0  0  0  0  0  0  0  0  0  0  0  0
   -1.4793   -9.0125   31.4752 C   0  0  0  0  0  0  0  0  0  0  0  0
   -2.3690   -7.9210   31.8605 C   0  0  0  0  0  0  0  0  0  0  0  0
   -3.3584   -8.5312   32.6483 O   0  0  0  0  0  0  0  0  0  0  0  0
   -6.6107  -16.7990   32.8375 N   0  0  0  0  0  0  0  0  0  0  0  0
   -5.5673  -17.4553   32.1336 C   0  0  0  0  0  0  0  0  0  0  0  0
   -4.4221  -19.2664   31.9770 H   0  0  0  0  0  0  0  0  0  0  0  0
   -5.5728  -20.3121   33.9139 H   0  0  0  0  0  0  0  0  0  0  0  0
   -4.1687  -15.8465   34.2422 H   0  0  0  0  0  0  0  0  0  0  0  0
   -3.0206  -16.3174   36.5300 H   0  0  0  0  0  0  0  0  0  0  0  0
   -7.5317  -16.3118   36.9845 H   0  0  0  0  0  0  0  0  0  0  0  0
   -6.1696  -14.5904   30.7004 H   0  0  0  0  0  0  0  0  0  0  0  0
   -6.1649  -10.7653   30.7556 H   0  0  0  0  0  0  0  0  0  0  0  0
   -5.4144   -9.6781   33.3459 H   0  0  0  0  0  0  0  0  0  0  0  0
   -3.6847  -12.5435   29.7316 H   0  0  0  0  0  0  0  0  0  0  0  0
   -1.2277   -9.3254   32.4933 H   0  0  0  0  0  0  0  0  0  0  0  0
   -0.6917   -8.5644   30.8564 H   0  0  0  0  0  0  0  0  0  0  0  0
   -2.7543   -7.4056   30.9979 H   0  0  0  0  0  0  0  0  0  0  0  0
   -1.8188   -7.1898   32.4659 H   0  0  0  0  0  0  0  0  0  0  0  0
   -5.1689  -16.9997   31.2488 H   0  0  0  0  0  0  0  0  0  0  0  0
  1  2  1  0
  2  3  2  0
  3  4  1  0
  4  5  2  0
  5  6  1  0
  6  7  1  0
  7  8  1  0
  8  9  2  0
  9 10  1  0
 10 11  1  0
  6 12  2  0
 12 13  1  0
 13 14  1  0
 14 15  2  0
 15 16  1  0
 16 17  2  0
 17 18  1  0
 18 19  2  0
 18 20  1  0
 20 21  1  0
 21 22  1  0
 22 23  1  0
 12 24  1  0
 24 25  1  0
 25  1  2  0
 24  4  1  0
 11  7  2  0
 19 14  1  0
 23 17  1  0
  1 26  1  0
  2 27  1  0
  8 28  1  0
  9 29  1  0
 11 30  1  0
 13 31  1  0
 15 32  1  0
 16 33  1  0
 19 34  1  0
 21 35  1  0
 21 36  1  0
 22 37  1  0
 22 38  1  0
 25 39  1  0
M  END
>  <Energy>  (283) 
675.6063151165481

>  <compound_id>  (283) 
76338

>  <target_id>  (283) 
1

>  <reference_id>  (283) 
107

>  <inspiration_ids>  (283) 
[107, 13]

>  <energy_score>  (283) 
515.3366185886657

>  <distance_score>  (283) 
10.649891135755537

>  <path>  (283) 
/opt/xchem-fragalysis-2/maxwin/BulkDock/SCRATCH/511022/C76338-P107/C76338-P107.minimised.mol

>  <scratch_subdir>  (283) 
/opt/xchem-fragalysis-2/maxwin/BulkDock/SCRATCH/511022/C76338-P107

>  <fragmenstein_runtime>  (283) 
11.188214778900146

>  <fragmenstein_outcome>  (283) 
too moved

>  <fragmenstein_mode>  (283) 
expansion

>  <fragmenstein_error>  (283) 


$$$$
C76338-P13
     RDKit          3D

 39 43  0  0  0  0  0  0  0  0999 V2000
  -10.9331  -14.4832   24.8766 C   0  0  0  0  0  0  0  0  0  0  0  0
  -10.7779  -15.9196   25.1696 C   0  0  0  0  0  0  0  0  0  0  0  0
   -9.9138  -16.4465   25.9753 N   0  0  0  0  0  0  0  0  0  0  0  0
   -9.0665  -15.5909   26.6098 C   0  0  0  0  0  0  0  0  0  0  0  0
   -8.2639  -15.8070   27.6403 N   0  0  0  0  0  0  0  0  0  0  0  0
   -7.6232  -14.5450   28.0357 C   0  0  0  0  0  0  0  0  0  0  0  0
   -6.3189  -14.8577   29.3261 C   0  0  0  0  0  0  0  0  0  0  0  0
   -6.1656  -14.2758   30.5821 C   0  0  0  0  0  0  0  0  0  0  0  0
   -5.4357  -15.1522   31.3399 C   0  0  0  0  0  0  0  0  0  0  0  0
   -4.3109  -16.2456   30.7442 S   0  0  0  0  0  0  0  0  0  0  0  0
   -5.5604  -16.3169   29.6278 C   0  0  0  0  0  0  0  0  0  0  0  0
   -7.8925  -13.7061   26.8465 C   0  0  0  0  0  0  0  0  0  0  0  0
   -7.2636  -12.6707   26.1667 N   0  0  0  0  0  0  0  0  0  0  0  0
   -7.3414  -11.9467   24.9077 C   0  0  0  0  0  0  0  0  0  0  0  0
   -7.2606  -12.6146   23.6925 C   0  0  0  0  0  0  0  0  0  0  0  0
   -6.9080  -11.9263   22.5160 C   0  0  0  0  0  0  0  0  0  0  0  0
   -6.6099  -10.5652   22.5333 C   0  0  0  0  0  0  0  0  0  0  0  0
   -6.7917   -9.8365   23.6946 C   0  0  0  0  0  0  0  0  0  0  0  0
   -7.2181  -10.5157   24.8497 C   0  0  0  0  0  0  0  0  0  0  0  0
   -6.4451   -8.5121   23.8080 O   0  0  0  0  0  0  0  0  0  0  0  0
   -5.8498   -7.9823   22.6169 C   0  0  0  0  0  0  0  0  0  0  0  0
   -5.1654   -9.0016   21.7418 C   0  0  0  0  0  0  0  0  0  0  0  0
   -6.0926  -10.0215   21.3878 O   0  0  0  0  0  0  0  0  0  0  0  0
   -9.0459  -14.2528   26.2902 N   0  0  0  0  0  0  0  0  0  0  0  0
  -10.0051  -13.7048   25.4436 C   0  0  0  0  0  0  0  0  0  0  0  0
  -11.7079  -14.1330   24.2115 H   0  0  0  0  0  0  0  0  0  0  0  0
  -11.4732  -16.5745   24.6207 H   0  0  0  0  0  0  0  0  0  0  0  0
   -6.8243  -13.6079   31.0787 H   0  0  0  0  0  0  0  0  0  0  0  0
   -5.9081  -15.5981   32.1457 H   0  0  0  0  0  0  0  0  0  0  0  0
   -5.5982  -17.2496   29.0744 H   0  0  0  0  0  0  0  0  0  0  0  0
   -6.5054  -12.2642   26.6909 H   0  0  0  0  0  0  0  0  0  0  0  0
   -7.3657  -13.6958   23.6537 H   0  0  0  0  0  0  0  0  0  0  0  0
   -6.7832  -12.4881   21.5928 H   0  0  0  0  0  0  0  0  0  0  0  0
   -7.3105   -9.8973   25.7362 H   0  0  0  0  0  0  0  0  0  0  0  0
   -6.6250   -7.4400   22.0649 H   0  0  0  0  0  0  0  0  0  0  0  0
   -5.0617   -7.2964   22.9231 H   0  0  0  0  0  0  0  0  0  0  0  0
   -4.8019   -8.5341   20.8209 H   0  0  0  0  0  0  0  0  0  0  0  0
   -4.3020   -9.4564   22.2458 H   0  0  0  0  0  0  0  0  0  0  0  0
   -9.9614  -12.6366   25.2771 H   0  0  0  0  0  0  0  0  0  0  0  0
  1  2  1  0
  2  3  2  0
  3  4  1  0
  4  5  2  0
  5  6  1  0
  6  7  1  0
  7  8  1  0
  8  9  2  0
  9 10  1  0
 10 11  1  0
  6 12  2  0
 12 13  1  0
 13 14  1  0
 14 15  2  0
 15 16  1  0
 16 17  2  0
 17 18  1  0
 18 19  2  0
 18 20  1  0
 20 21  1  0
 21 22  1  0
 22 23  1  0
 12 24  1  0
 24 25  1  0
 25  1  2  0
 24  4  1  0
 11  7  2  0
 19 14  1  0
 23 17  1  0
  1 26  1  0
  2 27  1  0
  8 28  1  0
  9 29  1  0
 11 30  1  0
 13 31  1  0
 15 32  1  0
 16 33  1  0
 19 34  1  0
 21 35  1  0
 21 36  1  0
 22 37  1  0
 22 38  1  0
 25 39  1  0
M  END
>  <Energy>  (284) 
270.9035177421348

>  <compound_id>  (284) 
76338

>  <target_id>  (284) 
1

>  <reference_id>  (284) 
13

>  <inspiration_ids>  (284) 
[107, 13]

>  <energy_score>  (284) 
110.63382121426298

>  <distance_score>  (284) 
11.984544081696306

>  <path>  (284) 
/opt/xchem-fragalysis-2/maxwin/BulkDock/SCRATCH/511022/C76338-P13/C76338-P13.minimised.mol

>  <scratch_subdir>  (284) 
/opt/xchem-fragalysis-2/maxwin/BulkDock/SCRATCH/511022/C76338-P13

>  <fragmenstein_runtime>  (284) 
17.62659525871277

>  <fragmenstein_outcome>  (284) 
too moved

>  <fragmenstein_mode>  (284) 
expansion

>  <fragmenstein_error>  (284) 


$$$$
C76332-P107
     RDKit          3D

 45 49  0  0  0  0  0  0  0  0999 V2000
    0.1105   -7.9551   32.5004 O   0  0  0  0  0  0  0  0  0  0  0  0
   -1.2741   -7.6385   32.2560 S   0  0  0  0  0  0  0  0  0  0  0  0
   -2.1140   -7.2776   33.3632 O   0  0  0  0  0  0  0  0  0  0  0  0
   -2.0501   -8.9002   31.2546 N   0  0  0  0  0  0  0  0  0  0  0  0
   -3.1547   -9.9370   31.6274 C   0  0  0  0  0  0  0  0  0  0  0  0
   -3.5772  -11.3024   30.7354 C   0  0  0  0  0  0  0  0  0  0  0  0
   -5.0726  -12.2251   30.7809 C   0  0  0  0  0  0  0  0  0  0  0  0
   -6.3129  -12.2040   31.7670 C   0  0  0  0  0  0  0  0  0  0  0  0
   -7.3957  -13.6959   32.5964 C   0  0  0  0  0  0  0  0  0  0  0  0
   -8.4610  -14.7369   32.2988 C   0  0  0  0  0  0  0  0  0  0  0  0
   -8.5102  -16.0257   33.3394 N   0  0  0  0  0  0  0  0  0  0  0  0
   -9.5971  -16.5770   34.0894 C   0  0  0  0  0  0  0  0  0  0  0  0
   -9.5675  -16.6888   35.4350 C   0  0  0  0  0  0  0  0  0  0  0  0
   -8.1704  -17.0123   35.8426 C   0  0  0  0  0  0  0  0  0  0  0  0
   -7.1129  -16.8361   35.1253 N   0  0  0  0  0  0  0  0  0  0  0  0
   -7.3244  -16.0361   34.0432 C   0  0  0  0  0  0  0  0  0  0  0  0
   -6.9047  -14.8070   33.9614 N   0  0  0  0  0  0  0  0  0  0  0  0
   -5.5379  -10.7318   32.3355 C   0  0  0  0  0  0  0  0  0  0  0  0
   -4.2832   -9.6137   32.3252 C   0  0  0  0  0  0  0  0  0  0  0  0
   -0.9942   -6.1670   31.2250 C   0  0  0  0  0  0  0  0  0  0  0  0
   -0.4862   -6.2975   29.9237 C   0  0  0  0  0  0  0  0  0  0  0  0
   -0.1803   -5.1488   29.1641 C   0  0  0  0  0  0  0  0  0  0  0  0
   -0.3446   -3.8726   29.7002 C   0  0  0  0  0  0  0  0  0  0  0  0
   -0.8199   -3.7384   31.0072 C   0  0  0  0  0  0  0  0  0  0  0  0
   -1.1003   -4.8786   31.7850 C   0  0  0  0  0  0  0  0  0  0  0  0
   -1.0583   -2.5143   31.5792 O   0  0  0  0  0  0  0  0  0  0  0  0
   -1.1383   -1.4795   30.5915 C   0  0  0  0  0  0  0  0  0  0  0  0
    0.0037   -1.5784   29.5965 C   0  0  0  0  0  0  0  0  0  0  0  0
   -0.0562   -2.8142   28.8795 O   0  0  0  0  0  0  0  0  0  0  0  0
   -1.3021   -9.4100   30.7883 H   0  0  0  0  0  0  0  0  0  0  0  0
   -2.8907  -11.6472   29.9486 H   0  0  0  0  0  0  0  0  0  0  0  0
   -5.0817  -13.0221   30.0608 H   0  0  0  0  0  0  0  0  0  0  0  0
   -9.2280  -14.8856   31.5649 H   0  0  0  0  0  0  0  0  0  0  0  0
   -9.8264  -17.5773   33.7627 H   0  0  0  0  0  0  0  0  0  0  0  0
  -10.3232  -17.2527   35.9716 H   0  0  0  0  0  0  0  0  0  0  0  0
   -8.0699  -17.5232   36.8117 H   0  0  0  0  0  0  0  0  0  0  0  0
   -5.9957  -10.3010   33.2297 H   0  0  0  0  0  0  0  0  0  0  0  0
   -4.3526   -8.8135   33.0415 H   0  0  0  0  0  0  0  0  0  0  0  0
   -0.3398   -7.2777   29.4804 H   0  0  0  0  0  0  0  0  0  0  0  0
    0.1504   -5.2507   28.1350 H   0  0  0  0  0  0  0  0  0  0  0  0
   -1.4163   -4.7564   32.8203 H   0  0  0  0  0  0  0  0  0  0  0  0
   -2.1044   -1.5649   30.0866 H   0  0  0  0  0  0  0  0  0  0  0  0
   -1.1079   -0.5177   31.1127 H   0  0  0  0  0  0  0  0  0  0  0  0
   -0.0553   -0.7652   28.8664 H   0  0  0  0  0  0  0  0  0  0  0  0
    0.9765   -1.5180   30.0996 H   0  0  0  0  0  0  0  0  0  0  0  0
  1  2  2  0
  2  3  2  0
  2  4  1  0
  4  5  1  0
  5  6  2  0
  6  7  1  0
  7  8  2  0
  8  9  1  0
  9 10  2  0
 10 11  1  0
 11 12  1  0
 12 13  2  0
 13 14  1  0
 14 15  2  0
 15 16  1  0
 16 17  2  0
  8 18  1  0
 18 19  2  0
  2 20  1  0
 20 21  2  0
 21 22  1  0
 22 23  2  0
 23 24  1  0
 24 25  2  0
 24 26  1  0
 26 27  1  0
 27 28  1  0
 28 29  1  0
 19  5  1  0
 25 20  1  0
 17  9  1  0
 29 23  1  0
 16 11  1  0
  4 30  1  0
  6 31  1  0
  7 32  1  0
 10 33  1  0
 12 34  1  0
 13 35  1  0
 14 36  1  0
 18 37  1  0
 19 38  1  0
 21 39  1  0
 22 40  1  0
 25 41  1  0
 27 42  1  0
 27 43  1  0
 28 44  1  0
 28 45  1  0
M  END
>  <Energy>  (285) 
549.41389486541232

>  <compound_id>  (285) 
76332

>  <target_id>  (285) 
1

>  <reference_id>  (285) 
107

>  <inspiration_ids>  (285) 
[107, 13]

>  <energy_score>  (285) 
459.30343121160513

>  <distance_score>  (285) 
8.25065251936837

>  <path>  (285) 
/opt/xchem-fragalysis-2/maxwin/BulkDock/SCRATCH/511022/C76332-P107/C76332-P107.minimised.mol

>  <scratch_subdir>  (285) 
/opt/xchem-fragalysis-2/maxwin/BulkDock/SCRATCH/511022/C76332-P107

>  <fragmenstein_runtime>  (285) 
24.232593774795532

>  <fragmenstein_outcome>  (285) 
too moved

>  <fragmenstein_mode>  (285) 
expansion

>  <fragmenstein_error>  (285) 


$$$$
C76332-P13
     RDKit          3D

 45 49  0  0  0  0  0  0  0  0999 V2000
   -1.3121   -8.4146   30.3501 O   0  0  0  0  0  0  0  0  0  0  0  0
   -1.6291   -7.9000   31.6634 S   0  0  0  0  0  0  0  0  0  0  0  0
   -0.7902   -8.3396   32.7580 O   0  0  0  0  0  0  0  0  0  0  0  0
   -3.1652   -8.4891   32.1348 N   0  0  0  0  0  0  0  0  0  0  0  0
   -4.8663   -9.0245   31.9418 C   0  0  0  0  0  0  0  0  0  0  0  0
   -5.5744  -10.6808   31.4105 C   0  0  0  0  0  0  0  0  0  0  0  0
   -6.6952  -11.9836   31.8178 C   0  0  0  0  0  0  0  0  0  0  0  0
   -6.4436  -12.7268   32.7721 C   0  0  0  0  0  0  0  0  0  0  0  0
   -5.8880  -14.3609   31.7410 C   0  0  0  0  0  0  0  0  0  0  0  0
   -4.6326  -15.0951   31.2827 C   0  0  0  0  0  0  0  0  0  0  0  0
   -4.7411  -16.3975   30.8753 N   0  0  0  0  0  0  0  0  0  0  0  0
   -3.8620  -17.2953   30.2954 C   0  0  0  0  0  0  0  0  0  0  0  0
   -4.0921  -18.6068   30.4478 C   0  0  0  0  0  0  0  0  0  0  0  0
   -5.2650  -18.9109   31.3092 C   0  0  0  0  0  0  0  0  0  0  0  0
   -6.1355  -18.0681   31.7632 N   0  0  0  0  0  0  0  0  0  0  0  0
   -5.8261  -16.7511   31.5568 C   0  0  0  0  0  0  0  0  0  0  0  0
   -6.4814  -15.6002   31.8395 N   0  0  0  0  0  0  0  0  0  0  0  0
   -5.8682  -11.0863   33.4195 C   0  0  0  0  0  0  0  0  0  0  0  0
   -5.2617   -9.3936   33.3170 C   0  0  0  0  0  0  0  0  0  0  0  0
   -1.1946   -6.1400   31.6463 C   0  0  0  0  0  0  0  0  0  0  0  0
   -1.2030   -5.3364   32.7838 C   0  0  0  0  0  0  0  0  0  0  0  0
   -0.9650   -3.9444   32.6751 C   0  0  0  0  0  0  0  0  0  0  0  0
   -0.6459   -3.3653   31.4472 C   0  0  0  0  0  0  0  0  0  0  0  0
   -0.3962   -4.2006   30.3674 C   0  0  0  0  0  0  0  0  0  0  0  0
   -0.6192   -5.5812   30.4949 C   0  0  0  0  0  0  0  0  0  0  0  0
   -0.0049   -3.7428   29.1368 O   0  0  0  0  0  0  0  0  0  0  0  0
    0.3071   -2.3449   29.1445 C   0  0  0  0  0  0  0  0  0  0  0  0
   -0.6844   -1.5666   29.9930 C   0  0  0  0  0  0  0  0  0  0  0  0
   -0.5984   -1.9972   31.3628 O   0  0  0  0  0  0  0  0  0  0  0  0
   -2.8591   -9.1016   32.8989 H   0  0  0  0  0  0  0  0  0  0  0  0
   -6.3002  -10.5684   30.3891 H   0  0  0  0  0  0  0  0  0  0  0  0
   -6.8658  -12.7932   31.1385 H   0  0  0  0  0  0  0  0  0  0  0  0
   -3.5684  -14.9494   31.4846 H   0  0  0  0  0  0  0  0  0  0  0  0
   -3.0018  -16.8913   29.7786 H   0  0  0  0  0  0  0  0  0  0  0  0
   -3.4751  -19.4044   30.0638 H   0  0  0  0  0  0  0  0  0  0  0  0
   -5.3696  -19.9559   31.5881 H   0  0  0  0  0  0  0  0  0  0  0  0
   -6.0360  -10.7676   34.5001 H   0  0  0  0  0  0  0  0  0  0  0  0
   -4.7496   -9.0187   34.2193 H   0  0  0  0  0  0  0  0  0  0  0  0
   -1.4650   -5.7570   33.7528 H   0  0  0  0  0  0  0  0  0  0  0  0
   -1.0892   -3.3158   33.5553 H   0  0  0  0  0  0  0  0  0  0  0  0
   -0.4342   -6.2173   29.6458 H   0  0  0  0  0  0  0  0  0  0  0  0
    1.3308   -2.2255   29.5193 H   0  0  0  0  0  0  0  0  0  0  0  0
    0.2785   -1.9900   28.1103 H   0  0  0  0  0  0  0  0  0  0  0  0
   -0.4538   -0.4971   29.9664 H   0  0  0  0  0  0  0  0  0  0  0  0
   -1.7154   -1.7055   29.6443 H   0  0  0  0  0  0  0  0  0  0  0  0
  1  2  2  0
  2  3  2  0
  2  4  1  0
  4  5  1  0
  5  6  2  0
  6  7  1  0
  7  8  2  0
  8  9  1  0
  9 10  2  0
 10 11  1  0
 11 12  1  0
 12 13  2  0
 13 14  1  0
 14 15  2  0
 15 16  1  0
 16 17  2  0
  8 18  1  0
 18 19  2  0
  2 20  1  0
 20 21  2  0
 21 22  1  0
 22 23  2  0
 23 24  1  0
 24 25  2  0
 24 26  1  0
 26 27  1  0
 27 28  1  0
 28 29  1  0
 19  5  1  0
 25 20  1  0
 17  9  1  0
 29 23  1  0
 16 11  1  0
  4 30  1  0
  6 31  1  0
  7 32  1  0
 10 33  1  0
 12 34  1  0
 13 35  1  0
 14 36  1  0
 18 37  1  0
 19 38  1  0
 21 39  1  0
 22 40  1  0
 25 41  1  0
 27 42  1  0
 27 43  1  0
 28 44  1  0
 28 45  1  0
M  END
>  <Energy>  (286) 
758.01560498619585

>  <compound_id>  (286) 
76332

>  <target_id>  (286) 
1

>  <reference_id>  (286) 
13

>  <inspiration_ids>  (286) 
[107, 13]

>  <energy_score>  (286) 
667.9051413323971

>  <distance_score>  (286) 
8.346054989218898

>  <path>  (286) 
/opt/xchem-fragalysis-2/maxwin/BulkDock/SCRATCH/511022/C76332-P13/C76332-P13.minimised.mol

>  <scratch_subdir>  (286) 
/opt/xchem-fragalysis-2/maxwin/BulkDock/SCRATCH/511022/C76332-P13

>  <fragmenstein_runtime>  (286) 
19.73305892944336

>  <fragmenstein_outcome>  (286) 
too moved

>  <fragmenstein_mode>  (286) 
expansion

>  <fragmenstein_error>  (286) 


$$$$
C76364-P107
     RDKit          3D

 40 41  0  0  0  0  0  0  0  0999 V2000
   -6.9294  -16.3822   33.2942 C   0  0  0  0  0  0  0  0  0  0  0  0
   -5.7438  -16.1467   32.0897 C   0  0  0  0  0  0  0  0  0  0  0  0
   -4.5380  -16.6885   33.0918 C   0  0  0  0  0  0  0  0  0  0  0  0
   -5.8354  -14.5861   30.7188 C   0  0  0  0  0  0  0  0  0  0  0  0
   -4.9255  -12.8086   30.3868 C   0  0  0  0  0  0  0  0  0  0  0  0
   -3.3215  -11.7813   29.9765 C   0  0  0  0  0  0  0  0  0  0  0  0
   -1.8285  -10.3134   30.9581 S   0  0  0  0  0  0  0  0  0  0  0  0
   -2.5345   -9.6456   32.0472 O   0  0  0  0  0  0  0  0  0  0  0  0
   -0.5346  -10.9069   31.2337 O   0  0  0  0  0  0  0  0  0  0  0  0
   -1.1720   -8.8648   30.1731 N   0  0  0  0  0  0  0  0  0  0  0  0
   -0.9462   -7.7343   31.2057 C   0  0  0  0  0  0  0  0  0  0  0  0
   -0.5684   -6.3519   30.7327 C   0  0  0  0  0  0  0  0  0  0  0  0
   -0.7783   -5.2735   31.7816 C   0  0  0  0  0  0  0  0  0  0  0  0
   -0.6977   -3.9866   31.6380 N   0  0  0  0  0  0  0  0  0  0  0  0
   -0.3292   -3.5448   30.4066 C   0  0  0  0  0  0  0  0  0  0  0  0
   -0.2186   -2.3066   29.9669 N   0  0  0  0  0  0  0  0  0  0  0  0
    0.2512   -2.4094   28.6859 C   0  0  0  0  0  0  0  0  0  0  0  0
    0.4420   -3.7273   28.3487 C   0  0  0  0  0  0  0  0  0  0  0  0
   -0.0077   -4.4597   29.4079 N   0  0  0  0  0  0  0  0  0  0  0  0
   -0.1575   -5.8445   29.5578 C   0  0  0  0  0  0  0  0  0  0  0  0
   -7.9162  -15.9698   33.0781 H   0  0  0  0  0  0  0  0  0  0  0  0
   -7.0445  -17.4612   33.4548 H   0  0  0  0  0  0  0  0  0  0  0  0
   -6.6124  -15.9451   34.2493 H   0  0  0  0  0  0  0  0  0  0  0  0
   -5.8875  -16.9997   31.4458 H   0  0  0  0  0  0  0  0  0  0  0  0
   -3.5251  -16.7236   32.6766 H   0  0  0  0  0  0  0  0  0  0  0  0
   -4.4736  -16.0884   34.0087 H   0  0  0  0  0  0  0  0  0  0  0  0
   -4.7744  -17.7112   33.4149 H   0  0  0  0  0  0  0  0  0  0  0  0
   -6.8031  -14.1437   30.9748 H   0  0  0  0  0  0  0  0  0  0  0  0
   -5.8400  -15.1002   29.7751 H   0  0  0  0  0  0  0  0  0  0  0  0
   -5.3430  -12.5666   29.4273 H   0  0  0  0  0  0  0  0  0  0  0  0
   -5.4242  -12.1382   31.1011 H   0  0  0  0  0  0  0  0  0  0  0  0
   -3.7548  -11.3693   30.8745 H   0  0  0  0  0  0  0  0  0  0  0  0
   -2.8331  -12.6806   29.7368 H   0  0  0  0  0  0  0  0  0  0  0  0
   -0.2285   -9.1349   29.8289 H   0  0  0  0  0  0  0  0  0  0  0  0
   -0.2327   -8.0948   31.9426 H   0  0  0  0  0  0  0  0  0  0  0  0
   -1.9058   -7.5729   31.7095 H   0  0  0  0  0  0  0  0  0  0  0  0
   -1.0552   -5.6507   32.7824 H   0  0  0  0  0  0  0  0  0  0  0  0
    0.4565   -1.5341   28.0824 H   0  0  0  0  0  0  0  0  0  0  0  0
    0.8460   -4.1945   27.4712 H   0  0  0  0  0  0  0  0  0  0  0  0
    0.0176   -6.4636   28.6880 H   0  0  0  0  0  0  0  0  0  0  0  0
  1  2  1  0
  2  3  1  0
  2  4  1  0
  4  5  1  0
  5  6  1  0
  6  7  1  0
  7  8  2  0
  7  9  2  0
  7 10  1  0
 10 11  1  0
 11 12  1  0
 12 13  1  0
 13 14  2  0
 14 15  1  0
 15 16  2  0
 16 17  1  0
 17 18  2  0
 18 19  1  0
 19 20  1  0
 20 12  2  0
 19 15  1  0
  1 21  1  0
  1 22  1  0
  1 23  1  0
  2 24  1  0
  3 25  1  0
  3 26  1  0
  3 27  1  0
  4 28  1  0
  4 29  1  0
  5 30  1  0
  5 31  1  0
  6 32  1  0
  6 33  1  0
 10 34  1  0
 11 35  1  0
 11 36  1  0
 13 37  1  0
 17 38  1  0
 18 39  1  0
 20 40  1  0
M  END
>  <Energy>  (287) 
360.0208986783212

>  <compound_id>  (287) 
76364

>  <target_id>  (287) 
1

>  <reference_id>  (287) 
107

>  <inspiration_ids>  (287) 
[107, 13]

>  <energy_score>  (287) 
380.36250607042024

>  <distance_score>  (287) 
8.350727287282716

>  <path>  (287) 
/opt/xchem-fragalysis-2/maxwin/BulkDock/SCRATCH/511022/C76364-P107/C76364-P107.minimised.mol

>  <scratch_subdir>  (287) 
/opt/xchem-fragalysis-2/maxwin/BulkDock/SCRATCH/511022/C76364-P107

>  <fragmenstein_runtime>  (287) 
12.426697731018066

>  <fragmenstein_outcome>  (287) 
too moved

>  <fragmenstein_mode>  (287) 
expansion

>  <fragmenstein_error>  (287) 


$$$$
C76364-P13
     RDKit          3D

 40 41  0  0  0  0  0  0  0  0999 V2000
   -1.1327  -10.3092   35.4086 C   0  0  0  0  0  0  0  0  0  0  0  0
   -2.1567   -9.3442   34.8018 C   0  0  0  0  0  0  0  0  0  0  0  0
   -3.4919   -9.5248   35.5581 C   0  0  0  0  0  0  0  0  0  0  0  0
   -1.6394   -7.8458   34.8200 C   0  0  0  0  0  0  0  0  0  0  0  0
   -1.0451   -7.3427   33.4638 C   0  0  0  0  0  0  0  0  0  0  0  0
   -0.7855   -5.8188   33.3460 C   0  0  0  0  0  0  0  0  0  0  0  0
    0.0422   -5.3915   31.7883 S   0  0  0  0  0  0  0  0  0  0  0  0
   -0.3578   -6.3327   30.7672 O   0  0  0  0  0  0  0  0  0  0  0  0
    1.4355   -5.1336   32.0684 O   0  0  0  0  0  0  0  0  0  0  0  0
   -0.5902   -3.8721   31.3200 N   0  0  0  0  0  0  0  0  0  0  0  0
   -0.1882   -3.5478   29.9051 C   0  0  0  0  0  0  0  0  0  0  0  0
   -0.3546   -2.0987   29.5691 C   0  0  0  0  0  0  0  0  0  0  0  0
    0.5634   -1.0856   30.1785 C   0  0  0  0  0  0  0  0  0  0  0  0
    0.6248    0.1840   29.9132 N   0  0  0  0  0  0  0  0  0  0  0  0
   -0.2250    0.6356   28.9436 C   0  0  0  0  0  0  0  0  0  0  0  0
   -0.3774    1.8582   28.4759 N   0  0  0  0  0  0  0  0  0  0  0  0
   -1.3450    1.7752   27.5059 C   0  0  0  0  0  0  0  0  0  0  0  0
   -1.7699    0.4787   27.3519 C   0  0  0  0  0  0  0  0  0  0  0  0
   -1.0889   -0.2410   28.2955 N   0  0  0  0  0  0  0  0  0  0  0  0
   -1.1521   -1.5901   28.6124 C   0  0  0  0  0  0  0  0  0  0  0  0
   -1.5123  -11.3238   35.5449 H   0  0  0  0  0  0  0  0  0  0  0  0
   -0.8230   -9.9604   36.4009 H   0  0  0  0  0  0  0  0  0  0  0  0
   -0.2334  -10.3531   34.7853 H   0  0  0  0  0  0  0  0  0  0  0  0
   -2.2820   -9.5956   33.7539 H   0  0  0  0  0  0  0  0  0  0  0  0
   -3.8122  -10.5666   35.6249 H   0  0  0  0  0  0  0  0  0  0  0  0
   -4.2910   -8.9526   35.0785 H   0  0  0  0  0  0  0  0  0  0  0  0
   -3.3946   -9.1512   36.5839 H   0  0  0  0  0  0  0  0  0  0  0  0
   -0.8812   -7.7206   35.6025 H   0  0  0  0  0  0  0  0  0  0  0  0
   -2.4660   -7.1908   35.0970 H   0  0  0  0  0  0  0  0  0  0  0  0
   -0.1061   -7.8811   33.2846 H   0  0  0  0  0  0  0  0  0  0  0  0
   -1.7250   -7.6376   32.6553 H   0  0  0  0  0  0  0  0  0  0  0  0
   -1.7183   -5.2728   33.3480 H   0  0  0  0  0  0  0  0  0  0  0  0
   -0.1582   -5.4536   34.1639 H   0  0  0  0  0  0  0  0  0  0  0  0
   -0.2295   -3.1698   31.9698 H   0  0  0  0  0  0  0  0  0  0  0  0
    0.8659   -3.8077   29.7496 H   0  0  0  0  0  0  0  0  0  0  0  0
   -0.7896   -4.1602   29.2267 H   0  0  0  0  0  0  0  0  0  0  0  0
    1.2562   -1.4820   30.9404 H   0  0  0  0  0  0  0  0  0  0  0  0
   -1.6751    2.6529   26.9640 H   0  0  0  0  0  0  0  0  0  0  0  0
   -2.4752    0.0193   26.6762 H   0  0  0  0  0  0  0  0  0  0  0  0
   -1.8332   -2.1854   28.0199 H   0  0  0  0  0  0  0  0  0  0  0  0
  1  2  1  0
  2  3  1  0
  2  4  1  0
  4  5  1  0
  5  6  1  0
  6  7  1  0
  7  8  2  0
  7  9  2  0
  7 10  1  0
 10 11  1  0
 11 12  1  0
 12 13  1  0
 13 14  2  0
 14 15  1  0
 15 16  2  0
 16 17  1  0
 17 18  2  0
 18 19  1  0
 19 20  1  0
 20 12  2  0
 19 15  1  0
  1 21  1  0
  1 22  1  0
  1 23  1  0
  2 24  1  0
  3 25  1  0
  3 26  1  0
  3 27  1  0
  4 28  1  0
  4 29  1  0
  5 30  1  0
  5 31  1  0
  6 32  1  0
  6 33  1  0
 10 34  1  0
 11 35  1  0
 11 36  1  0
 13 37  1  0
 17 38  1  0
 18 39  1  0
 20 40  1  0
M  END
>  <Energy>  (288) 
-47.909965397469342

>  <compound_id>  (288) 
76364

>  <target_id>  (288) 
1

>  <reference_id>  (288) 
13

>  <inspiration_ids>  (288) 
[107, 13]

>  <energy_score>  (288) 
-27.56835800536919

>  <distance_score>  (288) 
10.2498374685812

>  <path>  (288) 
/opt/xchem-fragalysis-2/maxwin/BulkDock/SCRATCH/511022/C76364-P13/C76364-P13.minimised.mol

>  <scratch_subdir>  (288) 
/opt/xchem-fragalysis-2/maxwin/BulkDock/SCRATCH/511022/C76364-P13

>  <fragmenstein_runtime>  (288) 
14.791285037994385

>  <fragmenstein_outcome>  (288) 
too moved

>  <fragmenstein_mode>  (288) 
expansion

>  <fragmenstein_error>  (288) 


$$$$
C76367-P107
     RDKit          3D

 40 41  0  0  0  0  0  0  0  0999 V2000
   -5.7950  -16.0298   31.9623 C   0  0  0  0  0  0  0  0  0  0  0  0
   -6.6028  -14.2794   31.2608 C   0  0  0  0  0  0  0  0  0  0  0  0
   -6.2114  -14.2093   29.7968 C   0  0  0  0  0  0  0  0  0  0  0  0
   -5.9240  -12.3732   31.4233 C   0  0  0  0  0  0  0  0  0  0  0  0
   -5.1192  -10.9547   30.5683 C   0  0  0  0  0  0  0  0  0  0  0  0
   -3.6416  -10.6088   29.5540 S   0  0  0  0  0  0  0  0  0  0  0  0
   -4.1198  -10.1709   28.2570 O   0  0  0  0  0  0  0  0  0  0  0  0
   -2.6233  -11.6190   29.6470 O   0  0  0  0  0  0  0  0  0  0  0  0
   -2.8929   -9.1654   30.2353 N   0  0  0  0  0  0  0  0  0  0  0  0
   -1.5869   -8.7828   29.5344 C   0  0  0  0  0  0  0  0  0  0  0  0
   -1.0927   -7.3765   29.8225 C   0  0  0  0  0  0  0  0  0  0  0  0
   -0.9757   -6.8592   31.2261 C   0  0  0  0  0  0  0  0  0  0  0  0
   -0.6214   -5.6657   31.6118 N   0  0  0  0  0  0  0  0  0  0  0  0
   -0.2879   -4.7819   30.6280 C   0  0  0  0  0  0  0  0  0  0  0  0
   -0.0333   -3.4892   30.7117 N   0  0  0  0  0  0  0  0  0  0  0  0
    0.2591   -3.0791   29.4384 C   0  0  0  0  0  0  0  0  0  0  0  0
    0.1946   -4.1379   28.5686 C   0  0  0  0  0  0  0  0  0  0  0  0
   -0.2298   -5.2084   29.3054 N   0  0  0  0  0  0  0  0  0  0  0  0
   -0.6274   -6.4906   28.9100 C   0  0  0  0  0  0  0  0  0  0  0  0
   -7.9296  -14.8954   32.5001 C   0  0  0  0  0  0  0  0  0  0  0  0
   -7.2412  -15.1365   33.7086 F   0  0  0  0  0  0  0  0  0  0  0  0
   -9.0671  -14.2415   32.4685 F   0  0  0  0  0  0  0  0  0  0  0  0
   -8.4728  -16.1516   32.5990 F   0  0  0  0  0  0  0  0  0  0  0  0
   -6.4282  -16.6879   32.6190 H   0  0  0  0  0  0  0  0  0  0  0  0
   -5.0258  -16.1165   32.7439 H   0  0  0  0  0  0  0  0  0  0  0  0
   -5.6325  -16.6241   31.0853 H   0  0  0  0  0  0  0  0  0  0  0  0
   -5.7318  -15.1727   29.6185 H   0  0  0  0  0  0  0  0  0  0  0  0
   -6.9369  -14.0279   28.9827 H   0  0  0  0  0  0  0  0  0  0  0  0
   -5.5621  -13.3554   29.6606 H   0  0  0  0  0  0  0  0  0  0  0  0
   -6.9464  -12.0939   31.6800 H   0  0  0  0  0  0  0  0  0  0  0  0
   -6.0009  -11.6513   32.2181 H   0  0  0  0  0  0  0  0  0  0  0  0
   -4.8722  -10.3014   31.4207 H   0  0  0  0  0  0  0  0  0  0  0  0
   -5.9019  -10.3906   30.0461 H   0  0  0  0  0  0  0  0  0  0  0  0
   -2.7063   -9.3437   31.2235 H   0  0  0  0  0  0  0  0  0  0  0  0
   -1.7296   -8.8936   28.4535 H   0  0  0  0  0  0  0  0  0  0  0  0
   -0.8189   -9.4941   29.8595 H   0  0  0  0  0  0  0  0  0  0  0  0
   -1.2309   -7.5898   32.0118 H   0  0  0  0  0  0  0  0  0  0  0  0
    0.5227   -2.0525   29.2181 H   0  0  0  0  0  0  0  0  0  0  0  0
    0.3927   -4.2136   27.5193 H   0  0  0  0  0  0  0  0  0  0  0  0
   -0.5825   -6.7082   27.8499 H   0  0  0  0  0  0  0  0  0  0  0  0
  1  2  1  0
  2  3  1  0
  2  4  1  0
  4  5  1  0
  5  6  1  0
  6  7  2  0
  6  8  2  0
  6  9  1  0
  9 10  1  0
 10 11  1  0
 11 12  1  0
 12 13  2  0
 13 14  1  0
 14 15  2  0
 15 16  1  0
 16 17  2  0
 17 18  1  0
 18 19  1  0
  2 20  1  0
 20 21  1  0
 20 22  1  0
 20 23  1  0
 19 11  2  0
 18 14  1  0
  1 24  1  0
  1 25  1  0
  1 26  1  0
  3 27  1  0
  3 28  1  0
  3 29  1  0
  4 30  1  0
  4 31  1  0
  5 32  1  0
  5 33  1  0
  9 34  1  0
 10 35  1  0
 10 36  1  0
 12 37  1  0
 16 38  1  0
 17 39  1  0
 19 40  1  0
M  END
>  <Energy>  (289) 
366.61786614122366

>  <compound_id>  (289) 
76367

>  <target_id>  (289) 
1

>  <reference_id>  (289) 
107

>  <inspiration_ids>  (289) 
[107, 13]

>  <energy_score>  (289) 
344.68529315141313

>  <distance_score>  (289) 
8.148812618639555

>  <path>  (289) 
/opt/xchem-fragalysis-2/maxwin/BulkDock/SCRATCH/511022/C76367-P107/C76367-P107.minimised.mol

>  <scratch_subdir>  (289) 
/opt/xchem-fragalysis-2/maxwin/BulkDock/SCRATCH/511022/C76367-P107

>  <fragmenstein_runtime>  (289) 
21.315006256103516

>  <fragmenstein_outcome>  (289) 
too moved

>  <fragmenstein_mode>  (289) 
expansion

>  <fragmenstein_error>  (289) 


$$$$
C76367-P13
     RDKit          3D

 40 41  0  0  0  0  0  0  0  0999 V2000
   -5.7072  -11.0783   32.1129 C   0  0  0  0  0  0  0  0  0  0  0  0
   -4.8278  -10.3123   30.4650 C   0  0  0  0  0  0  0  0  0  0  0  0
   -5.8011   -9.5880   29.5127 C   0  0  0  0  0  0  0  0  0  0  0  0
   -3.5318   -9.0556   30.6192 C   0  0  0  0  0  0  0  0  0  0  0  0
   -1.9857   -9.1318   30.4665 C   0  0  0  0  0  0  0  0  0  0  0  0
   -0.9283   -7.9381   31.4479 S   0  0  0  0  0  0  0  0  0  0  0  0
   -1.3133   -7.9916   32.8403 O   0  0  0  0  0  0  0  0  0  0  0  0
    0.4470   -8.1739   31.0645 O   0  0  0  0  0  0  0  0  0  0  0  0
   -1.2326   -6.3346   31.0386 N   0  0  0  0  0  0  0  0  0  0  0  0
   -0.0393   -5.4559   30.7766 C   0  0  0  0  0  0  0  0  0  0  0  0
   -0.4342   -4.0104   30.5528 C   0  0  0  0  0  0  0  0  0  0  0  0
   -0.2938   -3.0293   31.6818 C   0  0  0  0  0  0  0  0  0  0  0  0
   -0.5015   -1.7467   31.6501 N   0  0  0  0  0  0  0  0  0  0  0  0
   -0.8964   -1.2243   30.4529 C   0  0  0  0  0  0  0  0  0  0  0  0
   -1.1806    0.0265   30.1447 N   0  0  0  0  0  0  0  0  0  0  0  0
   -1.5351    0.0151   28.8197 C   0  0  0  0  0  0  0  0  0  0  0  0
   -1.4708   -1.2581   28.3098 C   0  0  0  0  0  0  0  0  0  0  0  0
   -1.0480   -2.0495   29.3438 N   0  0  0  0  0  0  0  0  0  0  0  0
   -0.7894   -3.4177   29.3953 C   0  0  0  0  0  0  0  0  0  0  0  0
   -4.3464  -11.3252   29.3146 C   0  0  0  0  0  0  0  0  0  0  0  0
   -5.4513  -11.9520   28.8443 F   0  0  0  0  0  0  0  0  0  0  0  0
   -3.4256  -12.2595   29.5599 F   0  0  0  0  0  0  0  0  0  0  0  0
   -3.8429  -10.6754   28.2391 F   0  0  0  0  0  0  0  0  0  0  0  0
   -5.7703  -10.3043   32.9160 H   0  0  0  0  0  0  0  0  0  0  0  0
   -5.3675  -11.6518   32.9729 H   0  0  0  0  0  0  0  0  0  0  0  0
   -6.5891  -11.7626   31.9078 H   0  0  0  0  0  0  0  0  0  0  0  0
   -5.6186   -8.5444   29.3822 H   0  0  0  0  0  0  0  0  0  0  0  0
   -6.8244   -9.8562   29.6819 H   0  0  0  0  0  0  0  0  0  0  0  0
   -5.6188   -9.7590   28.4523 H   0  0  0  0  0  0  0  0  0  0  0  0
   -3.7140   -8.4283   29.7438 H   0  0  0  0  0  0  0  0  0  0  0  0
   -3.7469   -8.5061   31.5330 H   0  0  0  0  0  0  0  0  0  0  0  0
   -1.5836  -10.0978   30.7665 H   0  0  0  0  0  0  0  0  0  0  0  0
   -1.6928   -8.9807   29.4205 H   0  0  0  0  0  0  0  0  0  0  0  0
   -1.7499   -5.9795   31.8486 H   0  0  0  0  0  0  0  0  0  0  0  0
    0.4932   -5.8231   29.8956 H   0  0  0  0  0  0  0  0  0  0  0  0
    0.6440   -5.5162   31.6315 H   0  0  0  0  0  0  0  0  0  0  0  0
    0.0224   -3.4689   32.6437 H   0  0  0  0  0  0  0  0  0  0  0  0
   -1.8346    0.9205   28.3061 H   0  0  0  0  0  0  0  0  0  0  0  0
   -1.7027   -1.6537   27.3326 H   0  0  0  0  0  0  0  0  0  0  0  0
   -0.8981   -3.9545   28.4638 H   0  0  0  0  0  0  0  0  0  0  0  0
  1  2  1  0
  2  3  1  0
  2  4  1  0
  4  5  1  0
  5  6  1  0
  6  7  2  0
  6  8  2  0
  6  9  1  0
  9 10  1  0
 10 11  1  0
 11 12  1  0
 12 13  2  0
 13 14  1  0
 14 15  2  0
 15 16  1  0
 16 17  2  0
 17 18  1  0
 18 19  1  0
  2 20  1  0
 20 21  1  0
 20 22  1  0
 20 23  1  0
 19 11  2  0
 18 14  1  0
  1 24  1  0
  1 25  1  0
  1 26  1  0
  3 27  1  0
  3 28  1  0
  3 29  1  0
  4 30  1  0
  4 31  1  0
  5 32  1  0
  5 33  1  0
  9 34  1  0
 10 35  1  0
 10 36  1  0
 12 37  1  0
 16 38  1  0
 17 39  1  0
 19 40  1  0
M  END
>  <Energy>  (290) 
116.40455369388971

>  <compound_id>  (290) 
76367

>  <target_id>  (290) 
1

>  <reference_id>  (290) 
13

>  <inspiration_ids>  (290) 
[107, 13]

>  <energy_score>  (290) 
94.47198070407944

>  <distance_score>  (290) 
7.579245848844827

>  <path>  (290) 
/opt/xchem-fragalysis-2/maxwin/BulkDock/SCRATCH/511022/C76367-P13/C76367-P13.minimised.mol

>  <scratch_subdir>  (290) 
/opt/xchem-fragalysis-2/maxwin/BulkDock/SCRATCH/511022/C76367-P13

>  <fragmenstein_runtime>  (290) 
32.08243918418884

>  <fragmenstein_outcome>  (290) 
too moved

>  <fragmenstein_mode>  (290) 
expansion

>  <fragmenstein_error>  (290) 


$$$$
C76376-P107
     RDKit          3D

 41 43  0  0  0  0  0  0  0  0999 V2000
   -0.8041   -4.5616   30.9662 C   0  0  0  0  0  0  0  0  0  0  0  0
   -1.1980   -5.9516   31.4534 C   0  0  0  0  0  0  0  0  0  0  0  0
   -1.4835   -5.8669   32.8562 O   0  0  0  0  0  0  0  0  0  0  0  0
   -0.0920   -6.9393   31.3064 C   0  0  0  0  0  0  0  0  0  0  0  0
    1.0360   -6.5030   31.3601 O   0  0  0  0  0  0  0  0  0  0  0  0
   -0.5795   -8.3163   31.2192 N   0  0  0  0  0  0  0  0  0  0  0  0
    0.1490   -9.6041   31.2821 C   0  0  0  0  0  0  0  0  0  0  0  0
   -0.4451  -11.0274   30.9921 C   0  0  0  0  0  0  0  0  0  0  0  0
   -2.1438  -11.0663   30.3834 N   0  0  0  0  0  0  0  0  0  0  0  0
   -3.2240  -12.4835   29.7770 C   0  0  0  0  0  0  0  0  0  0  0  0
   -2.7170  -13.5073   29.6851 O   0  0  0  0  0  0  0  0  0  0  0  0
   -4.9479  -12.3878   29.5336 N   0  0  0  0  0  0  0  0  0  0  0  0
   -6.1830  -13.6460   29.2707 C   0  0  0  0  0  0  0  0  0  0  0  0
   -7.2576  -13.4920   28.2566 C   0  0  0  0  0  0  0  0  0  0  0  0
   -7.3870  -13.5623   26.9836 N   0  0  0  0  0  0  0  0  0  0  0  0
   -8.2719  -14.5840   27.0054 C   0  0  0  0  0  0  0  0  0  0  0  0
   -9.2373  -15.0207   26.2598 N   0  0  0  0  0  0  0  0  0  0  0  0
   -9.2525  -16.3345   26.4926 C   0  0  0  0  0  0  0  0  0  0  0  0
   -8.3115  -16.7036   27.4624 C   0  0  0  0  0  0  0  0  0  0  0  0
   -7.7770  -15.5425   27.9816 N   0  0  0  0  0  0  0  0  0  0  0  0
   -6.3677  -15.0082   28.8694 C   0  0  0  0  0  0  0  0  0  0  0  0
   -1.2935  -10.1425   29.2813 C   0  0  0  0  0  0  0  0  0  0  0  0
   -0.7310   -8.7201   29.7706 C   0  0  0  0  0  0  0  0  0  0  0  0
    0.0422   -4.1625   31.5382 H   0  0  0  0  0  0  0  0  0  0  0  0
   -1.6213   -3.8481   31.1112 H   0  0  0  0  0  0  0  0  0  0  0  0
   -0.5163   -4.5720   29.9100 H   0  0  0  0  0  0  0  0  0  0  0  0
   -2.0536   -6.4168   30.9977 H   0  0  0  0  0  0  0  0  0  0  0  0
   -0.6947   -5.4954   33.2909 H   0  0  0  0  0  0  0  0  0  0  0  0
    0.2760   -9.6638   32.3757 H   0  0  0  0  0  0  0  0  0  0  0  0
    1.1971   -9.5723   30.9888 H   0  0  0  0  0  0  0  0  0  0  0  0
    0.3723  -11.5139   30.4514 H   0  0  0  0  0  0  0  0  0  0  0  0
   -0.3674  -11.5871   31.9327 H   0  0  0  0  0  0  0  0  0  0  0  0
   -5.2125  -11.4426   29.5628 H   0  0  0  0  0  0  0  0  0  0  0  0
   -8.2369  -13.7411   28.7939 H   0  0  0  0  0  0  0  0  0  0  0  0
   -9.9676  -16.9273   25.9608 H   0  0  0  0  0  0  0  0  0  0  0  0
   -8.1333  -17.6330   27.9920 H   0  0  0  0  0  0  0  0  0  0  0  0
   -5.8146  -15.8720   29.2615 H   0  0  0  0  0  0  0  0  0  0  0  0
   -0.3095  -10.5813   29.0462 H   0  0  0  0  0  0  0  0  0  0  0  0
   -1.4622  -10.2673   28.2379 H   0  0  0  0  0  0  0  0  0  0  0  0
   -1.3011   -7.8651   29.3599 H   0  0  0  0  0  0  0  0  0  0  0  0
    0.0656   -8.5067   29.0824 H   0  0  0  0  0  0  0  0  0  0  0  0
  1  2  1  0
  2  3  1  0
  2  4  1  0
  4  5  2  0
  4  6  1  0
  6  7  1  0
  7  8  1  0
  8  9  1  0
  9 10  1  0
 10 11  2  0
 10 12  1  0
 12 13  1  0
 13 14  1  0
 14 15  2  0
 15 16  1  0
 16 17  2  0
 17 18  1  0
 18 19  2  0
 19 20  1  0
 20 21  1  0
  9 22  1  0
 22 23  1  0
 23  6  1  0
 21 13  2  0
 20 16  1  0
  1 24  1  0
  1 25  1  0
  1 26  1  0
  2 27  1  0
  3 28  1  0
  7 29  1  0
  7 30  1  0
  8 31  1  0
  8 32  1  0
 12 33  1  0
 14 34  1  0
 18 35  1  0
 19 36  1  0
 21 37  1  0
 22 38  1  0
 22 39  1  0
 23 40  1  0
 23 41  1  0
M  END
>  <Energy>  (291) 
664.7110393581745

>  <compound_id>  (291) 
76376

>  <target_id>  (291) 
1

>  <reference_id>  (291) 
107

>  <inspiration_ids>  (291) 
[107, 13]

>  <energy_score>  (291) 
555.7460885949884

>  <distance_score>  (291) 
9.753992497680507

>  <path>  (291) 
/opt/xchem-fragalysis-2/maxwin/BulkDock/SCRATCH/511022/C76376-P107/C76376-P107.minimised.mol

>  <scratch_subdir>  (291) 
/opt/xchem-fragalysis-2/maxwin/BulkDock/SCRATCH/511022/C76376-P107

>  <fragmenstein_runtime>  (291) 
21.482688426971436

>  <fragmenstein_outcome>  (291) 
too moved

>  <fragmenstein_mode>  (291) 
expansion

>  <fragmenstein_error>  (291) 


$$$$
C76376-P13
     RDKit          3D

 41 43  0  0  0  0  0  0  0  0999 V2000
   -5.2825   -9.3197   38.5973 C   0  0  0  0  0  0  0  0  0  0  0  0
   -6.4247  -10.3108   38.7552 C   0  0  0  0  0  0  0  0  0  0  0  0
   -7.3339   -9.8086   39.7314 O   0  0  0  0  0  0  0  0  0  0  0  0
   -7.1453  -10.5308   37.3996 C   0  0  0  0  0  0  0  0  0  0  0  0
   -8.2014   -9.9878   37.1968 O   0  0  0  0  0  0  0  0  0  0  0  0
   -6.3422  -11.3453   36.5460 N   0  0  0  0  0  0  0  0  0  0  0  0
   -6.4963  -11.6932   35.1002 C   0  0  0  0  0  0  0  0  0  0  0  0
   -7.9147  -12.0990   34.6164 C   0  0  0  0  0  0  0  0  0  0  0  0
   -8.2588  -13.5454   34.7301 N   0  0  0  0  0  0  0  0  0  0  0  0
   -7.4786  -14.7378   34.3948 C   0  0  0  0  0  0  0  0  0  0  0  0
   -6.3628  -14.8390   34.0384 O   0  0  0  0  0  0  0  0  0  0  0  0
   -8.4838  -15.7634   34.6668 N   0  0  0  0  0  0  0  0  0  0  0  0
   -8.3912  -17.1189   34.6730 C   0  0  0  0  0  0  0  0  0  0  0  0
   -9.5533  -17.9283   35.1665 C   0  0  0  0  0  0  0  0  0  0  0  0
   -9.5518  -19.1950   35.4396 N   0  0  0  0  0  0  0  0  0  0  0  0
   -8.3917  -19.8533   35.1554 C   0  0  0  0  0  0  0  0  0  0  0  0
   -8.0872  -21.1094   35.3838 N   0  0  0  0  0  0  0  0  0  0  0  0
   -6.8298  -21.2962   34.8780 C   0  0  0  0  0  0  0  0  0  0  0  0
   -6.3313  -20.1290   34.3586 C   0  0  0  0  0  0  0  0  0  0  0  0
   -7.3172  -19.2030   34.5633 N   0  0  0  0  0  0  0  0  0  0  0  0
   -7.3098  -17.8372   34.3419 C   0  0  0  0  0  0  0  0  0  0  0  0
   -8.1304  -13.2340   36.2096 C   0  0  0  0  0  0  0  0  0  0  0  0
   -6.7171  -12.8045   36.7084 C   0  0  0  0  0  0  0  0  0  0  0  0
   -4.5255   -9.6826   37.8954 H   0  0  0  0  0  0  0  0  0  0  0  0
   -4.8028   -9.1291   39.5631 H   0  0  0  0  0  0  0  0  0  0  0  0
   -5.6523   -8.3556   38.2300 H   0  0  0  0  0  0  0  0  0  0  0  0
   -6.0425  -11.2642   39.1314 H   0  0  0  0  0  0  0  0  0  0  0  0
   -7.9907   -9.2759   39.2395 H   0  0  0  0  0  0  0  0  0  0  0  0
   -6.2995  -10.7257   34.6181 H   0  0  0  0  0  0  0  0  0  0  0  0
   -5.6814  -12.3318   34.7249 H   0  0  0  0  0  0  0  0  0  0  0  0
   -8.7258  -11.4267   34.9383 H   0  0  0  0  0  0  0  0  0  0  0  0
   -7.8864  -11.9640   33.5286 H   0  0  0  0  0  0  0  0  0  0  0  0
   -9.3679  -15.3146   34.8770 H   0  0  0  0  0  0  0  0  0  0  0  0
  -10.4803  -17.3591   35.3483 H   0  0  0  0  0  0  0  0  0  0  0  0
   -6.3491  -22.2648   34.9187 H   0  0  0  0  0  0  0  0  0  0  0  0
   -5.3937  -19.8851   33.8831 H   0  0  0  0  0  0  0  0  0  0  0  0
   -6.3933  -17.4105   33.9574 H   0  0  0  0  0  0  0  0  0  0  0  0
   -8.3293  -14.1906   36.7158 H   0  0  0  0  0  0  0  0  0  0  0  0
   -8.9491  -12.5911   36.5739 H   0  0  0  0  0  0  0  0  0  0  0  0
   -5.9054  -13.4770   36.3842 H   0  0  0  0  0  0  0  0  0  0  0  0
   -6.7436  -12.9631   37.7968 H   0  0  0  0  0  0  0  0  0  0  0  0
  1  2  1  0
  2  3  1  0
  2  4  1  0
  4  5  2  0
  4  6  1  0
  6  7  1  0
  7  8  1  0
  8  9  1  0
  9 10  1  0
 10 11  2  0
 10 12  1  0
 12 13  1  0
 13 14  1  0
 14 15  2  0
 15 16  1  0
 16 17  2  0
 17 18  1  0
 18 19  2  0
 19 20  1  0
 20 21  1  0
  9 22  1  0
 22 23  1  0
 23  6  1  0
 21 13  2  0
 20 16  1  0
  1 24  1  0
  1 25  1  0
  1 26  1  0
  2 27  1  0
  3 28  1  0
  7 29  1  0
  7 30  1  0
  8 31  1  0
  8 32  1  0
 12 33  1  0
 14 34  1  0
 18 35  1  0
 19 36  1  0
 21 37  1  0
 22 38  1  0
 22 39  1  0
 23 40  1  0
 23 41  1  0
M  END
>  <Energy>  (292) 
164.01213466321903

>  <compound_id>  (292) 
76376

>  <target_id>  (292) 
1

>  <reference_id>  (292) 
13

>  <inspiration_ids>  (292) 
[107, 13]

>  <energy_score>  (292) 
55.04718390002813

>  <distance_score>  (292) 
11.600277543534133

>  <path>  (292) 
/opt/xchem-fragalysis-2/maxwin/BulkDock/SCRATCH/511022/C76376-P13/C76376-P13.minimised.mol

>  <scratch_subdir>  (292) 
/opt/xchem-fragalysis-2/maxwin/BulkDock/SCRATCH/511022/C76376-P13

>  <fragmenstein_runtime>  (292) 
18.84290313720703

>  <fragmenstein_outcome>  (292) 
too moved

>  <fragmenstein_mode>  (292) 
expansion

>  <fragmenstein_error>  (292) 


$$$$
C76387-P107
     RDKit          3D

 36 38  0  0  0  0  0  0  0  0999 V2000
   -1.8454   -0.4503   28.5848 C   0  0  0  0  0  0  0  0  0  0  0  0
   -3.0897   -0.8910   27.9303 N   0  0  0  0  0  0  0  0  0  0  0  0
   -3.7896   -2.4574   28.3227 S   0  0  0  0  0  0  0  0  0  0  0  0
   -4.4488   -2.5430   27.0337 O   0  0  0  0  0  0  0  0  0  0  0  0
   -2.5663   -2.9117   28.9959 O   0  0  0  0  0  0  0  0  0  0  0  0
   -5.4743   -3.4369   29.4775 C   0  0  0  0  0  0  0  0  0  0  0  0
   -5.3423   -3.3004   30.9106 C   0  0  0  0  0  0  0  0  0  0  0  0
   -5.7923   -4.4017   31.7204 C   0  0  0  0  0  0  0  0  0  0  0  0
   -6.5121   -5.6562   31.0590 C   0  0  0  0  0  0  0  0  0  0  0  0
   -6.3699   -6.6278   29.4695 C   0  0  0  0  0  0  0  0  0  0  0  0
   -5.9059   -8.4717   30.3102 N   0  0  0  0  0  0  0  0  0  0  0  0
   -6.9076  -10.1476   30.4795 C   0  0  0  0  0  0  0  0  0  0  0  0
   -7.9191  -10.1102   29.8959 O   0  0  0  0  0  0  0  0  0  0  0  0
   -6.8071  -11.9349   31.6583 C   0  0  0  0  0  0  0  0  0  0  0  0
   -8.2377  -11.5872   32.5113 C   0  0  0  0  0  0  0  0  0  0  0  0
   -9.1251  -12.7742   33.0362 N   0  0  0  0  0  0  0  0  0  0  0  0
   -9.0123  -14.0889   32.5245 C   0  0  0  0  0  0  0  0  0  0  0  0
   -9.8830  -15.2039   32.9230 N   0  0  0  0  0  0  0  0  0  0  0  0
   -9.4021  -16.1763   33.6101 C   0  0  0  0  0  0  0  0  0  0  0  0
   -7.9998  -16.4007   33.6632 C   0  0  0  0  0  0  0  0  0  0  0  0
   -7.2379  -15.4379   33.1137 C   0  0  0  0  0  0  0  0  0  0  0  0
   -7.4074  -13.7531   32.3029 N   0  0  0  0  0  0  0  0  0  0  0  0
   -5.9469   -5.0035   29.0101 C   0  0  0  0  0  0  0  0  0  0  0  0
   -0.9961   -1.0521   28.2504 H   0  0  0  0  0  0  0  0  0  0  0  0
   -1.9310   -0.4734   29.6741 H   0  0  0  0  0  0  0  0  0  0  0  0
   -1.6520    0.5852   28.2881 H   0  0  0  0  0  0  0  0  0  0  0  0
   -2.9917   -0.9133   26.9149 H   0  0  0  0  0  0  0  0  0  0  0  0
   -4.7814   -2.4941   31.3715 H   0  0  0  0  0  0  0  0  0  0  0  0
   -5.6808   -4.3993   32.8048 H   0  0  0  0  0  0  0  0  0  0  0  0
   -7.1030   -4.7024   30.8481 H   0  0  0  0  0  0  0  0  0  0  0  0
   -5.0908   -8.5316   30.9024 H   0  0  0  0  0  0  0  0  0  0  0  0
   -8.8844  -10.8078   32.1182 H   0  0  0  0  0  0  0  0  0  0  0  0
  -10.0231  -16.8797   34.1823 H   0  0  0  0  0  0  0  0  0  0  0  0
   -7.6154  -17.3229   34.0768 H   0  0  0  0  0  0  0  0  0  0  0  0
   -6.2254  -15.9184   33.2160 H   0  0  0  0  0  0  0  0  0  0  0  0
   -6.2894   -5.1621   28.0140 H   0  0  0  0  0  0  0  0  0  0  0  0
  1  2  1  0
  2  3  1  0
  3  4  2  0
  3  5  2  0
  3  6  1  0
  6  7  2  0
  7  8  1  0
  8  9  2  0
  9 10  1  0
 10 11  1  0
 11 12  1  0
 12 13  2  0
 12 14  1  0
 14 15  2  0
 15 16  1  0
 16 17  2  0
 17 18  1  0
 18 19  2  0
 19 20  1  0
 20 21  2  0
 21 22  1  0
 10 23  2  0
 23  6  1  0
 22 14  1  0
 22 17  1  0
  1 24  1  0
  1 25  1  0
  1 26  1  0
  2 27  1  0
  7 28  1  0
  8 29  1  0
  9 30  1  0
 11 31  1  0
 15 32  1  0
 19 33  1  0
 20 34  1  0
 21 35  1  0
 23 36  1  0
M  END
>  <Energy>  (293) 
1315.0933715226176

>  <compound_id>  (293) 
76387

>  <target_id>  (293) 
1

>  <reference_id>  (293) 
107

>  <inspiration_ids>  (293) 
[107, 13]

>  <energy_score>  (293) 
1321.9387353961752

>  <distance_score>  (293) 
8.888419358233088

>  <path>  (293) 
/opt/xchem-fragalysis-2/maxwin/BulkDock/SCRATCH/511022/C76387-P107/C76387-P107.minimised.mol

>  <scratch_subdir>  (293) 
/opt/xchem-fragalysis-2/maxwin/BulkDock/SCRATCH/511022/C76387-P107

>  <fragmenstein_runtime>  (293) 
13.852283239364624

>  <fragmenstein_outcome>  (293) 
too moved

>  <fragmenstein_mode>  (293) 
expansion

>  <fragmenstein_error>  (293) 


$$$$
C76387-P13
     RDKit          3D

 36 38  0  0  0  0  0  0  0  0999 V2000
    2.6820   -8.5839   28.5518 C   0  0  0  0  0  0  0  0  0  0  0  0
    1.4599   -8.2944   27.8310 N   0  0  0  0  0  0  0  0  0  0  0  0
    0.5451   -9.5329   27.1208 S   0  0  0  0  0  0  0  0  0  0  0  0
   -0.1755   -9.0271   25.9750 O   0  0  0  0  0  0  0  0  0  0  0  0
    1.4996  -10.6162   26.9970 O   0  0  0  0  0  0  0  0  0  0  0  0
   -1.0215  -10.0369   28.6203 C   0  0  0  0  0  0  0  0  0  0  0  0
   -0.5207   -9.2159   29.6008 C   0  0  0  0  0  0  0  0  0  0  0  0
   -0.8920   -9.9351   30.5906 C   0  0  0  0  0  0  0  0  0  0  0  0
   -1.7931  -11.2671   30.1601 C   0  0  0  0  0  0  0  0  0  0  0  0
   -2.8087  -12.8026   29.7323 C   0  0  0  0  0  0  0  0  0  0  0  0
   -3.3710  -14.7855   29.6408 N   0  0  0  0  0  0  0  0  0  0  0  0
   -5.2300  -15.7243   29.8182 C   0  0  0  0  0  0  0  0  0  0  0  0
   -6.0388  -14.9284   30.1587 O   0  0  0  0  0  0  0  0  0  0  0  0
   -6.2101  -17.4754   29.3291 C   0  0  0  0  0  0  0  0  0  0  0  0
   -7.4590  -16.8219   28.1529 C   0  0  0  0  0  0  0  0  0  0  0  0
   -8.6013  -17.2731   27.4523 N   0  0  0  0  0  0  0  0  0  0  0  0
   -9.0868  -18.1108   28.3114 C   0  0  0  0  0  0  0  0  0  0  0  0
  -10.6617  -18.5496   29.2600 N   0  0  0  0  0  0  0  0  0  0  0  0
  -10.8614  -20.2242   29.5131 C   0  0  0  0  0  0  0  0  0  0  0  0
  -10.1524  -20.8915   28.3677 C   0  0  0  0  0  0  0  0  0  0  0  0
   -8.7707  -19.8523   28.4180 C   0  0  0  0  0  0  0  0  0  0  0  0
   -8.0510  -18.3238   29.1263 N   0  0  0  0  0  0  0  0  0  0  0  0
   -2.2090  -11.5839   28.6312 C   0  0  0  0  0  0  0  0  0  0  0  0
    3.4917   -8.8138   27.8541 H   0  0  0  0  0  0  0  0  0  0  0  0
    2.5483   -9.4135   29.2508 H   0  0  0  0  0  0  0  0  0  0  0  0
    2.9739   -7.7019   29.1292 H   0  0  0  0  0  0  0  0  0  0  0  0
    1.4962   -7.5020   27.1860 H   0  0  0  0  0  0  0  0  0  0  0  0
    0.1289   -8.3756   29.6264 H   0  0  0  0  0  0  0  0  0  0  0  0
   -0.5737   -9.7601   31.6181 H   0  0  0  0  0  0  0  0  0  0  0  0
   -1.2872  -11.4331   31.3511 H   0  0  0  0  0  0  0  0  0  0  0  0
   -2.7116  -15.4604   29.2671 H   0  0  0  0  0  0  0  0  0  0  0  0
   -7.5780  -15.7468   28.2419 H   0  0  0  0  0  0  0  0  0  0  0  0
  -11.7315  -20.7126   30.0107 H   0  0  0  0  0  0  0  0  0  0  0  0
  -10.4216  -21.8949   28.0793 H   0  0  0  0  0  0  0  0  0  0  0  0
   -8.0162  -20.6307   27.8792 H   0  0  0  0  0  0  0  0  0  0  0  0
   -2.5122  -11.8672   27.5922 H   0  0  0  0  0  0  0  0  0  0  0  0
  1  2  1  0
  2  3  1  0
  3  4  2  0
  3  5  2  0
  3  6  1  0
  6  7  2  0
  7  8  1  0
  8  9  2  0
  9 10  1  0
 10 11  1  0
 11 12  1  0
 12 13  2  0
 12 14  1  0
 14 15  2  0
 15 16  1  0
 16 17  2  0
 17 18  1  0
 18 19  2  0
 19 20  1  0
 20 21  2  0
 21 22  1  0
 10 23  2  0
 23  6  1  0
 22 14  1  0
 22 17  1  0
  1 24  1  0
  1 25  1  0
  1 26  1  0
  2 27  1  0
  7 28  1  0
  8 29  1  0
  9 30  1  0
 11 31  1  0
 15 32  1  0
 19 33  1  0
 20 34  1  0
 21 35  1  0
 23 36  1  0
M  END
>  <Energy>  (294) 
1748.2317760102237

>  <compound_id>  (294) 
76387

>  <target_id>  (294) 
1

>  <reference_id>  (294) 
13

>  <inspiration_ids>  (294) 
[107, 13]

>  <energy_score>  (294) 
1755.0771398838008

>  <distance_score>  (294) 
8.966779218439617

>  <path>  (294) 
/opt/xchem-fragalysis-2/maxwin/BulkDock/SCRATCH/511022/C76387-P13/C76387-P13.minimised.mol

>  <scratch_subdir>  (294) 
/opt/xchem-fragalysis-2/maxwin/BulkDock/SCRATCH/511022/C76387-P13

>  <fragmenstein_runtime>  (294) 
18.478431463241577

>  <fragmenstein_outcome>  (294) 
too moved

>  <fragmenstein_mode>  (294) 
expansion

>  <fragmenstein_error>  (294) 


$$$$
C76394-P85
     RDKit          3D

 52 53  0  0  0  0  0  0  0  0999 V2000
   -8.8171  -25.8838   11.3938 C   0  0  0  0  0  0  0  0  0  0  0  0
   -7.8645  -26.8771   10.7168 C   0  0  0  0  0  0  0  0  0  0  0  0
   -8.5921  -28.1432   10.2480 C   0  0  0  0  0  0  0  0  0  0  0  0
   -6.7685  -27.3008   11.7053 C   0  0  0  0  0  0  0  0  0  0  0  0
   -7.1405  -26.2092    9.6562 O   0  0  0  0  0  0  0  0  0  0  0  0
   -7.7396  -25.8442    8.4882 C   0  0  0  0  0  0  0  0  0  0  0  0
   -8.8700  -26.1324    8.2171 O   0  0  0  0  0  0  0  0  0  0  0  0
   -6.7621  -25.1655    7.7379 N   0  0  0  0  0  0  0  0  0  0  0  0
   -6.8488  -24.4835    6.4013 C   0  0  0  0  0  0  0  0  0  0  0  0
   -5.5950  -23.7815    5.9370 C   0  0  0  0  0  0  0  0  0  0  0  0
   -4.4041  -24.3778    6.0899 C   0  0  0  0  0  0  0  0  0  0  0  0
   -3.0439  -23.9507    5.6030 C   0  0  0  0  0  0  0  0  0  0  0  0
   -2.7658  -22.5346    5.5589 N   0  0  0  0  0  0  0  0  0  0  0  0
   -1.5182  -21.8216    5.5096 C   0  0  0  0  0  0  0  0  0  0  0  0
   -0.3923  -22.2148    5.5718 O   0  0  0  0  0  0  0  0  0  0  0  0
   -1.7242  -20.3573    5.2494 C   0  0  0  0  0  0  0  0  0  0  0  0
   -0.9472  -19.3520    5.7087 C   0  0  0  0  0  0  0  0  0  0  0  0
    0.1276  -19.3831    6.7710 C   0  0  0  0  0  0  0  0  0  0  0  0
    0.4463  -17.9930    7.3047 C   0  0  0  0  0  0  0  0  0  0  0  0
    1.7541  -18.2129    8.0260 C   0  0  0  0  0  0  0  0  0  0  0  0
    2.4525  -19.2326    7.3025 O   0  0  0  0  0  0  0  0  0  0  0  0
    1.5273  -19.8357    6.3713 C   0  0  0  0  0  0  0  0  0  0  0  0
   -4.4742  -25.7214    6.7633 C   0  0  0  0  0  0  0  0  0  0  0  0
   -5.9401  -26.1564    6.9373 C   0  0  0  0  0  0  0  0  0  0  0  0
   -9.2974  -26.3261   12.2727 H   0  0  0  0  0  0  0  0  0  0  0  0
   -9.6041  -25.5556   10.7073 H   0  0  0  0  0  0  0  0  0  0  0  0
   -8.2785  -24.9842   11.7059 H   0  0  0  0  0  0  0  0  0  0  0  0
   -7.9438  -28.7523    9.6084 H   0  0  0  0  0  0  0  0  0  0  0  0
   -8.9152  -28.7528   11.0992 H   0  0  0  0  0  0  0  0  0  0  0  0
   -9.4906  -27.9123    9.6681 H   0  0  0  0  0  0  0  0  0  0  0  0
   -6.0815  -28.0168   11.2385 H   0  0  0  0  0  0  0  0  0  0  0  0
   -6.1544  -26.4423   11.9997 H   0  0  0  0  0  0  0  0  0  0  0  0
   -7.1866  -27.7633   12.6053 H   0  0  0  0  0  0  0  0  0  0  0  0
   -7.4039  -25.0218    5.6149 H   0  0  0  0  0  0  0  0  0  0  0  0
   -7.5570  -23.6742    6.6130 H   0  0  0  0  0  0  0  0  0  0  0  0
   -5.7017  -22.8355    5.4199 H   0  0  0  0  0  0  0  0  0  0  0  0
   -2.8855  -24.3398    4.5908 H   0  0  0  0  0  0  0  0  0  0  0  0
   -2.2661  -24.3994    6.2257 H   0  0  0  0  0  0  0  0  0  0  0  0
   -3.5247  -21.8704    5.5601 H   0  0  0  0  0  0  0  0  0  0  0  0
   -2.4752  -20.1340    4.4984 H   0  0  0  0  0  0  0  0  0  0  0  0
   -1.1379  -18.3722    5.2812 H   0  0  0  0  0  0  0  0  0  0  0  0
   -0.2189  -20.0012    7.6105 H   0  0  0  0  0  0  0  0  0  0  0  0
   -0.3310  -17.5940    7.9570 H   0  0  0  0  0  0  0  0  0  0  0  0
    0.6012  -17.2824    6.4828 H   0  0  0  0  0  0  0  0  0  0  0  0
    1.5912  -18.5772    9.0457 H   0  0  0  0  0  0  0  0  0  0  0  0
    2.3660  -17.3077    8.0729 H   0  0  0  0  0  0  0  0  0  0  0  0
    1.7889  -19.5150    5.3587 H   0  0  0  0  0  0  0  0  0  0  0  0
    1.6482  -20.9209    6.4261 H   0  0  0  0  0  0  0  0  0  0  0  0
   -3.9440  -26.4760    6.1712 H   0  0  0  0  0  0  0  0  0  0  0  0
   -3.9879  -25.6568    7.7438 H   0  0  0  0  0  0  0  0  0  0  0  0
   -6.4096  -26.5978    6.0394 H   0  0  0  0  0  0  0  0  0  0  0  0
   -5.8702  -27.0504    7.5797 H   0  0  0  0  0  0  0  0  0  0  0  0
  1  2  1  0
  2  3  1  0
  2  4  1  0
  2  5  1  0
  5  6  1  0
  6  7  2  0
  6  8  1  0
  8  9  1  0
  9 10  1  0
 10 11  2  0
 11 12  1  0
 12 13  1  0
 13 14  1  0
 14 15  2  0
 14 16  1  0
 16 17  2  3
 17 18  1  0
 18 19  1  0
 19 20  1  0
 20 21  1  0
 21 22  1  0
 11 23  1  0
 23 24  1  0
 24  8  1  0
 22 18  1  0
  1 25  1  0
  1 26  1  0
  1 27  1  0
  3 28  1  0
  3 29  1  0
  3 30  1  0
  4 31  1  0
  4 32  1  0
  4 33  1  0
  9 34  1  0
  9 35  1  0
 10 36  1  0
 12 37  1  0
 12 38  1  0
 13 39  1  0
 16 40  1  0
 17 41  1  0
 18 42  1  0
 19 43  1  0
 19 44  1  0
 20 45  1  0
 20 46  1  0
 22 47  1  0
 22 48  1  0
 23 49  1  0
 23 50  1  0
 24 51  1  0
 24 52  1  0
M  END
>  <Energy>  (295) 
34.966086836552343

>  <compound_id>  (295) 
76394

>  <target_id>  (295) 
1

>  <reference_id>  (295) 
85

>  <inspiration_ids>  (295) 
[85, 28]

>  <energy_score>  (295) 
40.075280180007866

>  <distance_score>  (295) 
6.960810685811405

>  <path>  (295) 
/opt/xchem-fragalysis-2/maxwin/BulkDock/SCRATCH/511022/C76394-P85/C76394-P85.minimised.mol

>  <scratch_subdir>  (295) 
/opt/xchem-fragalysis-2/maxwin/BulkDock/SCRATCH/511022/C76394-P85

>  <fragmenstein_runtime>  (295) 
26.490321159362793

>  <fragmenstein_outcome>  (295) 
too moved

>  <fragmenstein_mode>  (295) 
expansion

>  <fragmenstein_error>  (295) 


$$$$
C76394-P28
     RDKit          3D

 52 53  0  0  0  0  0  0  0  0999 V2000
   -8.0025  -26.5087   11.4141 C   0  0  0  0  0  0  0  0  0  0  0  0
   -6.7246  -27.2138   10.9398 C   0  0  0  0  0  0  0  0  0  0  0  0
   -6.9270  -28.7252   10.7875 C   0  0  0  0  0  0  0  0  0  0  0  0
   -5.5955  -26.9850   11.9544 C   0  0  0  0  0  0  0  0  0  0  0  0
   -6.2600  -26.5492    9.7406 O   0  0  0  0  0  0  0  0  0  0  0  0
   -6.7850  -26.7722    8.5059 C   0  0  0  0  0  0  0  0  0  0  0  0
   -7.5272  -27.6763    8.2529 O   0  0  0  0  0  0  0  0  0  0  0  0
   -6.2556  -25.7674    7.6825 N   0  0  0  0  0  0  0  0  0  0  0  0
   -6.5318  -25.4293    6.2463 C   0  0  0  0  0  0  0  0  0  0  0  0
   -5.8473  -24.1694    5.7985 C   0  0  0  0  0  0  0  0  0  0  0  0
   -4.5732  -23.9328    6.1628 C   0  0  0  0  0  0  0  0  0  0  0  0
   -3.9837  -22.5596    6.0730 C   0  0  0  0  0  0  0  0  0  0  0  0
   -2.5749  -22.3714    5.8702 N   0  0  0  0  0  0  0  0  0  0  0  0
   -1.7556  -21.1902    5.9820 C   0  0  0  0  0  0  0  0  0  0  0  0
   -2.0532  -20.0522    6.1947 O   0  0  0  0  0  0  0  0  0  0  0  0
   -0.2943  -21.5107    5.7952 C   0  0  0  0  0  0  0  0  0  0  0  0
    0.7467  -20.7502    6.2063 C   0  0  0  0  0  0  0  0  0  0  0  0
    0.7469  -19.4789    7.0245 C   0  0  0  0  0  0  0  0  0  0  0  0
    0.4740  -18.2651    6.1780 C   0  0  0  0  0  0  0  0  0  0  0  0
    1.1623  -17.1578    6.9250 C   0  0  0  0  0  0  0  0  0  0  0  0
    2.3430  -17.7104    7.5067 O   0  0  0  0  0  0  0  0  0  0  0  0
    2.0908  -19.1199    7.6880 C   0  0  0  0  0  0  0  0  0  0  0  0
   -3.9349  -25.0417    6.9294 C   0  0  0  0  0  0  0  0  0  0  0  0
   -4.9246  -26.2195    7.0925 C   0  0  0  0  0  0  0  0  0  0  0  0
   -8.8034  -26.6157   10.6742 H   0  0  0  0  0  0  0  0  0  0  0  0
   -7.8336  -25.4333   11.5368 H   0  0  0  0  0  0  0  0  0  0  0  0
   -8.3572  -26.9186   12.3652 H   0  0  0  0  0  0  0  0  0  0  0  0
   -7.0302  -29.2121   11.7637 H   0  0  0  0  0  0  0  0  0  0  0  0
   -6.0844  -29.1829   10.2578 H   0  0  0  0  0  0  0  0  0  0  0  0
   -7.8353  -28.9620   10.2248 H   0  0  0  0  0  0  0  0  0  0  0  0
   -5.8276  -27.4247   12.9295 H   0  0  0  0  0  0  0  0  0  0  0  0
   -4.6579  -27.4254   11.5949 H   0  0  0  0  0  0  0  0  0  0  0  0
   -5.3987  -25.9149   12.0874 H   0  0  0  0  0  0  0  0  0  0  0  0
   -7.5990  -25.1588    6.2969 H   0  0  0  0  0  0  0  0  0  0  0  0
   -6.5679  -26.2581    5.5214 H   0  0  0  0  0  0  0  0  0  0  0  0
   -6.4535  -23.4117    5.3104 H   0  0  0  0  0  0  0  0  0  0  0  0
   -4.4923  -21.9594    5.3104 H   0  0  0  0  0  0  0  0  0  0  0  0
   -4.1602  -22.0786    7.0364 H   0  0  0  0  0  0  0  0  0  0  0  0
   -1.9756  -23.1802    5.7675 H   0  0  0  0  0  0  0  0  0  0  0  0
   -0.0757  -22.4065    5.2241 H   0  0  0  0  0  0  0  0  0  0  0  0
    1.7372  -21.0956    5.9092 H   0  0  0  0  0  0  0  0  0  0  0  0
   -0.0062  -19.5618    7.8164 H   0  0  0  0  0  0  0  0  0  0  0  0
   -0.5932  -18.0818    6.0596 H   0  0  0  0  0  0  0  0  0  0  0  0
    0.8967  -18.3758    5.1769 H   0  0  0  0  0  0  0  0  0  0  0  0
    0.5394  -16.8121    7.7473 H   0  0  0  0  0  0  0  0  0  0  0  0
    1.4152  -16.3098    6.2852 H   0  0  0  0  0  0  0  0  0  0  0  0
    2.9423  -19.6679    7.2729 H   0  0  0  0  0  0  0  0  0  0  0  0
    2.0590  -19.3246    8.7638 H   0  0  0  0  0  0  0  0  0  0  0  0
   -3.6747  -24.6739    7.9220 H   0  0  0  0  0  0  0  0  0  0  0  0
   -3.0211  -25.3868    6.4355 H   0  0  0  0  0  0  0  0  0  0  0  0
   -4.4631  -26.8464    7.8740 H   0  0  0  0  0  0  0  0  0  0  0  0
   -4.9495  -26.9355    6.2517 H   0  0  0  0  0  0  0  0  0  0  0  0
  1  2  1  0
  2  3  1  0
  2  4  1  0
  2  5  1  0
  5  6  1  0
  6  7  2  0
  6  8  1  0
  8  9  1  0
  9 10  1  0
 10 11  2  0
 11 12  1  0
 12 13  1  0
 13 14  1  0
 14 15  2  0
 14 16  1  0
 16 17  2  3
 17 18  1  0
 18 19  1  0
 19 20  1  0
 20 21  1  0
 21 22  1  0
 11 23  1  0
 23 24  1  0
 24  8  1  0
 22 18  1  0
  1 25  1  0
  1 26  1  0
  1 27  1  0
  3 28  1  0
  3 29  1  0
  3 30  1  0
  4 31  1  0
  4 32  1  0
  4 33  1  0
  9 34  1  0
  9 35  1  0
 10 36  1  0
 12 37  1  0
 12 38  1  0
 13 39  1  0
 16 40  1  0
 17 41  1  0
 18 42  1  0
 19 43  1  0
 19 44  1  0
 20 45  1  0
 20 46  1  0
 22 47  1  0
 22 48  1  0
 23 49  1  0
 23 50  1  0
 24 51  1  0
 24 52  1  0
M  END
>  <Energy>  (296) 
40.962292878765304

>  <compound_id>  (296) 
76394

>  <target_id>  (296) 
1

>  <reference_id>  (296) 
28

>  <inspiration_ids>  (296) 
[85, 28]

>  <energy_score>  (296) 
46.07148622222879

>  <distance_score>  (296) 
7.2066237566262545

>  <path>  (296) 
/opt/xchem-fragalysis-2/maxwin/BulkDock/SCRATCH/511022/C76394-P28/C76394-P28.minimised.mol

>  <scratch_subdir>  (296) 
/opt/xchem-fragalysis-2/maxwin/BulkDock/SCRATCH/511022/C76394-P28

>  <fragmenstein_runtime>  (296) 
29.82739543914795

>  <fragmenstein_outcome>  (296) 
too moved

>  <fragmenstein_mode>  (296) 
expansion

>  <fragmenstein_error>  (296) 


$$$$
C72710-P85
     RDKit          3D

 51 52  0  0  0  0  0  0  0  0999 V2000
   -6.2386  -26.9166    7.7322 C   0  0  0  0  0  0  0  0  0  0  0  0
   -6.2113  -25.3961    7.5705 C   0  0  0  0  0  0  0  0  0  0  0  0
   -7.6103  -24.9653    7.1220 C   0  0  0  0  0  0  0  0  0  0  0  0
   -5.8262  -24.7411    8.8936 C   0  0  0  0  0  0  0  0  0  0  0  0
   -5.3426  -24.8953    6.5196 O   0  0  0  0  0  0  0  0  0  0  0  0
   -4.0707  -25.3314    6.3312 C   0  0  0  0  0  0  0  0  0  0  0  0
   -3.5760  -26.1973    6.9934 O   0  0  0  0  0  0  0  0  0  0  0  0
   -3.5760  -24.6414    5.2053 N   0  0  0  0  0  0  0  0  0  0  0  0
   -2.3291  -24.8424    4.4096 C   0  0  0  0  0  0  0  0  0  0  0  0
   -2.2271  -23.9813    3.1909 C   0  0  0  0  0  0  0  0  0  0  0  0
   -2.4336  -22.6662    3.3011 C   0  0  0  0  0  0  0  0  0  0  0  0
   -2.8124  -22.1681    4.6599 C   0  0  0  0  0  0  0  0  0  0  0  0
   -1.9620  -20.9013    5.0407 C   0  0  0  0  0  0  0  0  0  0  0  0
   -2.5105  -19.8404    4.9172 O   0  0  0  0  0  0  0  0  0  0  0  0
   -0.6046  -21.2205    5.3970 N   0  0  0  0  0  0  0  0  0  0  0  0
    0.5539  -20.3611    5.6258 C   0  0  0  0  0  0  0  0  0  0  0  0
    0.5548  -19.5885    6.9660 C   0  0  0  0  0  0  0  0  0  0  0  0
    1.9804  -19.4871    7.5441 C   0  0  0  0  0  0  0  0  0  0  0  0
    2.1405  -18.2481    8.4160 C   0  0  0  0  0  0  0  0  0  0  0  0
    2.0095  -17.0454    7.6638 O   0  0  0  0  0  0  0  0  0  0  0  0
    0.9975  -17.0880    6.6550 C   0  0  0  0  0  0  0  0  0  0  0  0
   -0.0521  -18.1831    6.8393 C   0  0  0  0  0  0  0  0  0  0  0  0
   -2.8177  -23.3594    5.6556 C   0  0  0  0  0  0  0  0  0  0  0  0
   -6.3351  -27.4109    6.7591 H   0  0  0  0  0  0  0  0  0  0  0  0
   -5.3235  -27.3005    8.1937 H   0  0  0  0  0  0  0  0  0  0  0  0
   -7.0707  -27.2373    8.3693 H   0  0  0  0  0  0  0  0  0  0  0  0
   -7.6261  -23.9050    6.8599 H   0  0  0  0  0  0  0  0  0  0  0  0
   -8.3648  -25.1682    7.8876 H   0  0  0  0  0  0  0  0  0  0  0  0
   -7.9036  -25.4969    6.2083 H   0  0  0  0  0  0  0  0  0  0  0  0
   -5.7137  -23.6606    8.7800 H   0  0  0  0  0  0  0  0  0  0  0  0
   -6.5647  -24.9443    9.6757 H   0  0  0  0  0  0  0  0  0  0  0  0
   -4.8595  -25.1180    9.2442 H   0  0  0  0  0  0  0  0  0  0  0  0
   -2.4997  -25.8553    4.0101 H   0  0  0  0  0  0  0  0  0  0  0  0
   -1.3930  -25.0075    4.9661 H   0  0  0  0  0  0  0  0  0  0  0  0
   -1.9557  -24.4308    2.2414 H   0  0  0  0  0  0  0  0  0  0  0  0
   -2.3689  -21.9858    2.4589 H   0  0  0  0  0  0  0  0  0  0  0  0
   -3.8528  -21.8174    4.5851 H   0  0  0  0  0  0  0  0  0  0  0  0
   -0.5143  -22.2232    5.4859 H   0  0  0  0  0  0  0  0  0  0  0  0
    0.6186  -19.6679    4.7799 H   0  0  0  0  0  0  0  0  0  0  0  0
    1.4171  -21.0339    5.5739 H   0  0  0  0  0  0  0  0  0  0  0  0
   -0.0597  -20.1530    7.6806 H   0  0  0  0  0  0  0  0  0  0  0  0
    2.2029  -20.3898    8.1246 H   0  0  0  0  0  0  0  0  0  0  0  0
    2.7119  -19.4404    6.7293 H   0  0  0  0  0  0  0  0  0  0  0  0
    3.1349  -18.2390    8.8740 H   0  0  0  0  0  0  0  0  0  0  0  0
    1.4102  -18.2377    9.2325 H   0  0  0  0  0  0  0  0  0  0  0  0
    1.4680  -17.2056    5.6809 H   0  0  0  0  0  0  0  0  0  0  0  0
    0.5375  -16.0989    6.6381 H   0  0  0  0  0  0  0  0  0  0  0  0
   -0.7777  -18.1583    6.0231 H   0  0  0  0  0  0  0  0  0  0  0  0
   -0.6071  -17.9637    7.7570 H   0  0  0  0  0  0  0  0  0  0  0  0
   -1.8541  -23.5721    6.1314 H   0  0  0  0  0  0  0  0  0  0  0  0
   -3.4056  -22.9897    6.5123 H   0  0  0  0  0  0  0  0  0  0  0  0
  1  2  1  0
  2  3  1  0
  2  4  1  0
  2  5  1  0
  5  6  1  0
  6  7  2  0
  6  8  1  0
  8  9  1  0
  9 10  1  0
 10 11  2  0
 11 12  1  0
 12 13  1  0
 13 14  2  0
 13 15  1  0
 15 16  1  0
 16 17  1  0
 17 18  1  0
 18 19  1  0
 19 20  1  0
 20 21  1  0
 21 22  1  0
 12 23  1  0
 23  8  1  0
 22 17  1  0
  1 24  1  0
  1 25  1  0
  1 26  1  0
  3 27  1  0
  3 28  1  0
  3 29  1  0
  4 30  1  0
  4 31  1  0
  4 32  1  0
  9 33  1  0
  9 34  1  0
 10 35  1  0
 11 36  1  0
 12 37  1  0
 15 38  1  0
 16 39  1  0
 16 40  1  0
 17 41  1  0
 18 42  1  0
 18 43  1  0
 19 44  1  0
 19 45  1  0
 21 46  1  0
 21 47  1  0
 22 48  1  0
 22 49  1  0
 23 50  1  0
 23 51  1  0
M  END
>  <Energy>  (297) 
73.98963645334905

>  <compound_id>  (297) 
72710

>  <target_id>  (297) 
1

>  <reference_id>  (297) 
85

>  <inspiration_ids>  (297) 
[85, 28]

>  <energy_score>  (297) 
47.916401753612796

>  <distance_score>  (297) 
8.83101405197219

>  <path>  (297) 
/opt/xchem-fragalysis-2/maxwin/BulkDock/SCRATCH/511022/C72710-P85/C72710-P85.minimised.mol

>  <scratch_subdir>  (297) 
/opt/xchem-fragalysis-2/maxwin/BulkDock/SCRATCH/511022/C72710-P85

>  <fragmenstein_runtime>  (297) 
29.830686569213867

>  <fragmenstein_outcome>  (297) 
too moved

>  <fragmenstein_mode>  (297) 
expansion

>  <fragmenstein_error>  (297) 


$$$$
C72710-P28
     RDKit          3D

 51 52  0  0  0  0  0  0  0  0999 V2000
   -5.9997  -25.0943   10.8479 C   0  0  0  0  0  0  0  0  0  0  0  0
   -5.0749  -26.3078   10.7036 C   0  0  0  0  0  0  0  0  0  0  0  0
   -4.1580  -26.3780   11.9338 C   0  0  0  0  0  0  0  0  0  0  0  0
   -5.8768  -27.6135   10.6193 C   0  0  0  0  0  0  0  0  0  0  0  0
   -4.1599  -26.1612    9.5841 O   0  0  0  0  0  0  0  0  0  0  0  0
   -4.5139  -26.5084    8.3102 C   0  0  0  0  0  0  0  0  0  0  0  0
   -3.8187  -27.2840    7.7137 O   0  0  0  0  0  0  0  0  0  0  0  0
   -5.6635  -25.8024    7.8994 N   0  0  0  0  0  0  0  0  0  0  0  0
   -6.4609  -25.8744    6.6194 C   0  0  0  0  0  0  0  0  0  0  0  0
   -5.7095  -25.9956    5.3215 C   0  0  0  0  0  0  0  0  0  0  0  0
   -4.5826  -25.3009    5.1204 C   0  0  0  0  0  0  0  0  0  0  0  0
   -4.1356  -24.4105    6.2371 C   0  0  0  0  0  0  0  0  0  0  0  0
   -3.9310  -22.9535    5.7334 C   0  0  0  0  0  0  0  0  0  0  0  0
   -4.8892  -22.3364    5.3613 O   0  0  0  0  0  0  0  0  0  0  0  0
   -2.5418  -22.5769    5.8105 N   0  0  0  0  0  0  0  0  0  0  0  0
   -1.8840  -21.3092    5.5540 C   0  0  0  0  0  0  0  0  0  0  0  0
   -0.3684  -21.3082    5.8587 C   0  0  0  0  0  0  0  0  0  0  0  0
   -0.0118  -20.6722    7.2251 C   0  0  0  0  0  0  0  0  0  0  0  0
    0.5972  -19.2770    7.1130 C   0  0  0  0  0  0  0  0  0  0  0  0
   -0.1138  -18.5443    6.1311 O   0  0  0  0  0  0  0  0  0  0  0  0
    0.0534  -19.0698    4.8142 C   0  0  0  0  0  0  0  0  0  0  0  0
    0.3776  -20.5562    4.7620 C   0  0  0  0  0  0  0  0  0  0  0  0
   -5.2639  -24.4332    7.3146 C   0  0  0  0  0  0  0  0  0  0  0  0
   -6.5423  -25.1142   11.7966 H   0  0  0  0  0  0  0  0  0  0  0  0
   -5.4300  -24.1610   10.7889 H   0  0  0  0  0  0  0  0  0  0  0  0
   -6.7480  -25.0711   10.0519 H   0  0  0  0  0  0  0  0  0  0  0  0
   -3.5843  -25.4510   12.0473 H   0  0  0  0  0  0  0  0  0  0  0  0
   -4.7256  -26.5511   12.8529 H   0  0  0  0  0  0  0  0  0  0  0  0
   -3.4240  -27.1854   11.8271 H   0  0  0  0  0  0  0  0  0  0  0  0
   -5.2121  -28.4713   10.4670 H   0  0  0  0  0  0  0  0  0  0  0  0
   -6.5778  -27.6037    9.7782 H   0  0  0  0  0  0  0  0  0  0  0  0
   -6.4590  -27.7832   11.5316 H   0  0  0  0  0  0  0  0  0  0  0  0
   -7.3276  -25.1957    6.5863 H   0  0  0  0  0  0  0  0  0  0  0  0
   -6.9391  -26.8601    6.7320 H   0  0  0  0  0  0  0  0  0  0  0  0
   -6.1023  -26.6523    4.5520 H   0  0  0  0  0  0  0  0  0  0  0  0
   -4.0119  -25.3710    4.2017 H   0  0  0  0  0  0  0  0  0  0  0  0
   -3.2089  -24.8102    6.6603 H   0  0  0  0  0  0  0  0  0  0  0  0
   -1.9950  -23.3837    6.0972 H   0  0  0  0  0  0  0  0  0  0  0  0
   -2.4085  -20.5382    6.1237 H   0  0  0  0  0  0  0  0  0  0  0  0
   -2.0792  -21.1023    4.4956 H   0  0  0  0  0  0  0  0  0  0  0  0
   -0.0108  -22.3457    5.8582 H   0  0  0  0  0  0  0  0  0  0  0  0
   -0.9107  -20.6135    7.8449 H   0  0  0  0  0  0  0  0  0  0  0  0
    0.6987  -21.3132    7.7592 H   0  0  0  0  0  0  0  0  0  0  0  0
    1.6620  -19.3165    6.8588 H   0  0  0  0  0  0  0  0  0  0  0  0
    0.5185  -18.7486    8.0670 H   0  0  0  0  0  0  0  0  0  0  0  0
    0.8207  -18.5043    4.2886 H   0  0  0  0  0  0  0  0  0  0  0  0
   -0.8900  -18.8964    4.2850 H   0  0  0  0  0  0  0  0  0  0  0  0
    0.1542  -20.9584    3.7670 H   0  0  0  0  0  0  0  0  0  0  0  0
    1.4492  -20.7196    4.9146 H   0  0  0  0  0  0  0  0  0  0  0  0
   -6.1162  -23.7650    7.1046 H   0  0  0  0  0  0  0  0  0  0  0  0
   -4.8195  -23.9247    8.1817 H   0  0  0  0  0  0  0  0  0  0  0  0
  1  2  1  0
  2  3  1  0
  2  4  1  0
  2  5  1  0
  5  6  1  0
  6  7  2  0
  6  8  1  0
  8  9  1  0
  9 10  1  0
 10 11  2  0
 11 12  1  0
 12 13  1  0
 13 14  2  0
 13 15  1  0
 15 16  1  0
 16 17  1  0
 17 18  1  0
 18 19  1  0
 19 20  1  0
 20 21  1  0
 21 22  1  0
 12 23  1  0
 23  8  1  0
 22 17  1  0
  1 24  1  0
  1 25  1  0
  1 26  1  0
  3 27  1  0
  3 28  1  0
  3 29  1  0
  4 30  1  0
  4 31  1  0
  4 32  1  0
  9 33  1  0
  9 34  1  0
 10 35  1  0
 11 36  1  0
 12 37  1  0
 15 38  1  0
 16 39  1  0
 16 40  1  0
 17 41  1  0
 18 42  1  0
 18 43  1  0
 19 44  1  0
 19 45  1  0
 21 46  1  0
 21 47  1  0
 22 48  1  0
 22 49  1  0
 23 50  1  0
 23 51  1  0
M  END
>  <Energy>  (298) 
81.772873579453744

>  <compound_id>  (298) 
72710

>  <target_id>  (298) 
1

>  <reference_id>  (298) 
28

>  <inspiration_ids>  (298) 
[85, 28]

>  <energy_score>  (298) 
55.699638879719416

>  <distance_score>  (298) 
7.710564401476425

>  <path>  (298) 
/opt/xchem-fragalysis-2/maxwin/BulkDock/SCRATCH/511022/C72710-P28/C72710-P28.minimised.mol

>  <scratch_subdir>  (298) 
/opt/xchem-fragalysis-2/maxwin/BulkDock/SCRATCH/511022/C72710-P28

>  <fragmenstein_runtime>  (298) 
30.896678686141968

>  <fragmenstein_outcome>  (298) 
too moved

>  <fragmenstein_mode>  (298) 
expansion

>  <fragmenstein_error>  (298) 


$$$$
C76402-P85
     RDKit          3D

 51 52  0  0  0  0  0  0  0  0999 V2000
   -5.7087  -24.7343    9.4775 C   0  0  0  0  0  0  0  0  0  0  0  0
   -5.5764  -25.4747    8.1322 C   0  0  0  0  0  0  0  0  0  0  0  0
   -6.9866  -25.6605    7.5519 C   0  0  0  0  0  0  0  0  0  0  0  0
   -4.8904  -26.8209    8.3979 C   0  0  0  0  0  0  0  0  0  0  0  0
   -4.7879  -24.6109    7.2594 O   0  0  0  0  0  0  0  0  0  0  0  0
   -4.5550  -24.9780    5.9603 C   0  0  0  0  0  0  0  0  0  0  0  0
   -4.6938  -26.1126    5.5989 O   0  0  0  0  0  0  0  0  0  0  0  0
   -4.2504  -23.8110    5.2250 N   0  0  0  0  0  0  0  0  0  0  0  0
   -4.1152  -23.5956    3.7629 C   0  0  0  0  0  0  0  0  0  0  0  0
   -3.9842  -22.1684    3.3545 C   0  0  0  0  0  0  0  0  0  0  0  0
   -2.9553  -21.4717    3.8419 C   0  0  0  0  0  0  0  0  0  0  0  0
   -2.1029  -22.1739    4.8547 C   0  0  0  0  0  0  0  0  0  0  0  0
   -2.0259  -21.2604    6.1008 C   0  0  0  0  0  0  0  0  0  0  0  0
   -2.8958  -21.3559    6.9169 O   0  0  0  0  0  0  0  0  0  0  0  0
   -0.9069  -20.3476    6.0173 N   0  0  0  0  0  0  0  0  0  0  0  0
   -0.4381  -19.3298    6.9426 C   0  0  0  0  0  0  0  0  0  0  0  0
    0.9446  -18.7136    6.6370 C   0  0  0  0  0  0  0  0  0  0  0  0
    2.0860  -19.4986    7.3096 C   0  0  0  0  0  0  0  0  0  0  0  0
    2.4838  -18.8736    8.6442 C   0  0  0  0  0  0  0  0  0  0  0  0
    2.8773  -17.4047    8.4963 C   0  0  0  0  0  0  0  0  0  0  0  0
    2.2978  -16.7720    7.3597 O   0  0  0  0  0  0  0  0  0  0  0  0
    0.9769  -17.2431    7.0966 C   0  0  0  0  0  0  0  0  0  0  0  0
   -2.7102  -23.5978    5.1745 C   0  0  0  0  0  0  0  0  0  0  0  0
   -4.7995  -24.8474   10.0767 H   0  0  0  0  0  0  0  0  0  0  0  0
   -6.5368  -25.1205   10.0808 H   0  0  0  0  0  0  0  0  0  0  0  0
   -5.8409  -23.6635    9.3138 H   0  0  0  0  0  0  0  0  0  0  0  0
   -7.4362  -24.6911    7.3106 H   0  0  0  0  0  0  0  0  0  0  0  0
   -7.6440  -26.1856    8.2532 H   0  0  0  0  0  0  0  0  0  0  0  0
   -6.9738  -26.2382    6.6225 H   0  0  0  0  0  0  0  0  0  0  0  0
   -5.3823  -27.3609    9.2147 H   0  0  0  0  0  0  0  0  0  0  0  0
   -3.8374  -26.6754    8.6611 H   0  0  0  0  0  0  0  0  0  0  0  0
   -4.9112  -27.4790    7.5247 H   0  0  0  0  0  0  0  0  0  0  0  0
   -5.1213  -23.8820    3.4149 H   0  0  0  0  0  0  0  0  0  0  0  0
   -3.5060  -24.3175    3.1940 H   0  0  0  0  0  0  0  0  0  0  0  0
   -4.6781  -21.7400    2.6403 H   0  0  0  0  0  0  0  0  0  0  0  0
   -2.7721  -20.4370    3.5731 H   0  0  0  0  0  0  0  0  0  0  0  0
   -1.0912  -22.3280    4.4619 H   0  0  0  0  0  0  0  0  0  0  0  0
   -0.3244  -20.6097    5.2326 H   0  0  0  0  0  0  0  0  0  0  0  0
   -0.4456  -19.7954    7.9307 H   0  0  0  0  0  0  0  0  0  0  0  0
   -1.2179  -18.5621    6.9442 H   0  0  0  0  0  0  0  0  0  0  0  0
    1.1080  -18.7429    5.5525 H   0  0  0  0  0  0  0  0  0  0  0  0
    1.8112  -20.5505    7.4492 H   0  0  0  0  0  0  0  0  0  0  0  0
    2.9640  -19.5000    6.6538 H   0  0  0  0  0  0  0  0  0  0  0  0
    1.6341  -18.9468    9.3347 H   0  0  0  0  0  0  0  0  0  0  0  0
    3.3012  -19.4343    9.1109 H   0  0  0  0  0  0  0  0  0  0  0  0
    3.9637  -17.3199    8.3864 H   0  0  0  0  0  0  0  0  0  0  0  0
    2.6018  -16.8433    9.3962 H   0  0  0  0  0  0  0  0  0  0  0  0
    0.3771  -17.1103    8.0010 H   0  0  0  0  0  0  0  0  0  0  0  0
    0.5581  -16.6039    6.3175 H   0  0  0  0  0  0  0  0  0  0  0  0
   -2.1918  -24.4029    4.6209 H   0  0  0  0  0  0  0  0  0  0  0  0
   -2.3936  -23.8307    6.2003 H   0  0  0  0  0  0  0  0  0  0  0  0
  1  2  1  0
  2  3  1  0
  2  4  1  0
  2  5  1  0
  5  6  1  0
  6  7  2  0
  6  8  1  0
  8  9  1  0
  9 10  1  0
 10 11  2  0
 11 12  1  0
 12 13  1  0
 13 14  2  0
 13 15  1  0
 15 16  1  0
 16 17  1  0
 17 18  1  0
 18 19  1  0
 19 20  1  0
 20 21  1  0
 21 22  1  0
 12 23  1  0
 23  8  1  0
 22 17  1  0
  1 24  1  0
  1 25  1  0
  1 26  1  0
  3 27  1  0
  3 28  1  0
  3 29  1  0
  4 30  1  0
  4 31  1  0
  4 32  1  0
  9 33  1  0
  9 34  1  0
 10 35  1  0
 11 36  1  0
 12 37  1  0
 15 38  1  0
 16 39  1  0
 16 40  1  0
 17 41  1  0
 18 42  1  0
 18 43  1  0
 19 44  1  0
 19 45  1  0
 20 46  1  0
 20 47  1  0
 22 48  1  0
 22 49  1  0
 23 50  1  0
 23 51  1  0
M  END
>  <Energy>  (299) 
79.599155473036021

>  <compound_id>  (299) 
76402

>  <target_id>  (299) 
1

>  <reference_id>  (299) 
85

>  <inspiration_ids>  (299) 
[85, 28]

>  <energy_score>  (299) 
42.40944054965819

>  <distance_score>  (299) 
8.612024835840216

>  <path>  (299) 
/opt/xchem-fragalysis-2/maxwin/BulkDock/SCRATCH/511022/C76402-P85/C76402-P85.minimised.mol

>  <scratch_subdir>  (299) 
/opt/xchem-fragalysis-2/maxwin/BulkDock/SCRATCH/511022/C76402-P85

>  <fragmenstein_runtime>  (299) 
31.08839726448059

>  <fragmenstein_outcome>  (299) 
too moved

>  <fragmenstein_mode>  (299) 
expansion

>  <fragmenstein_error>  (299) 


$$$$
C76402-P28
     RDKit          3D

 51 52  0  0  0  0  0  0  0  0999 V2000
   -7.2618  -26.3820   11.0517 C   0  0  0  0  0  0  0  0  0  0  0  0
   -5.8148  -26.3582   10.5444 C   0  0  0  0  0  0  0  0  0  0  0  0
   -4.9082  -25.7554   11.6252 C   0  0  0  0  0  0  0  0  0  0  0  0
   -5.2952  -27.7605   10.2120 C   0  0  0  0  0  0  0  0  0  0  0  0
   -5.7348  -25.4209    9.4453 O   0  0  0  0  0  0  0  0  0  0  0  0
   -6.1483  -25.7101    8.1822 C   0  0  0  0  0  0  0  0  0  0  0  0
   -6.4164  -26.8137    7.8037 O   0  0  0  0  0  0  0  0  0  0  0  0
   -6.1524  -24.4811    7.4981 N   0  0  0  0  0  0  0  0  0  0  0  0
   -6.6034  -24.1311    6.1001 C   0  0  0  0  0  0  0  0  0  0  0  0
   -6.2576  -25.0218    4.9373 C   0  0  0  0  0  0  0  0  0  0  0  0
   -5.0311  -25.5382    4.8204 C   0  0  0  0  0  0  0  0  0  0  0  0
   -4.1133  -25.2595    5.9532 C   0  0  0  0  0  0  0  0  0  0  0  0
   -2.6547  -24.8892    5.5370 C   0  0  0  0  0  0  0  0  0  0  0  0
   -1.8319  -25.7583    5.6326 O   0  0  0  0  0  0  0  0  0  0  0  0
   -2.5175  -23.4991    5.1843 N   0  0  0  0  0  0  0  0  0  0  0  0
   -1.3323  -22.6905    4.9278 C   0  0  0  0  0  0  0  0  0  0  0  0
   -1.5095  -21.2356    5.4361 C   0  0  0  0  0  0  0  0  0  0  0  0
   -0.2788  -20.7172    6.2102 C   0  0  0  0  0  0  0  0  0  0  0  0
    0.2105  -19.3835    5.6626 C   0  0  0  0  0  0  0  0  0  0  0  0
    0.3979  -19.5203    4.1556 C   0  0  0  0  0  0  0  0  0  0  0  0
   -0.7516  -19.9945    3.4474 O   0  0  0  0  0  0  0  0  0  0  0  0
   -1.8631  -20.3041    4.2703 C   0  0  0  0  0  0  0  0  0  0  0  0
   -4.7772  -24.2150    6.8885 C   0  0  0  0  0  0  0  0  0  0  0  0
   -7.9415  -26.7480   10.2744 H   0  0  0  0  0  0  0  0  0  0  0  0
   -7.6032  -25.3755   11.3159 H   0  0  0  0  0  0  0  0  0  0  0  0
   -7.3675  -27.0272   11.9297 H   0  0  0  0  0  0  0  0  0  0  0  0
   -5.2240  -24.7362   11.8727 H   0  0  0  0  0  0  0  0  0  0  0  0
   -4.9121  -26.3566   12.5398 H   0  0  0  0  0  0  0  0  0  0  0  0
   -3.8747  -25.6788   11.2672 H   0  0  0  0  0  0  0  0  0  0  0  0
   -5.1388  -28.3518   11.1212 H   0  0  0  0  0  0  0  0  0  0  0  0
   -6.0009  -28.3226    9.5928 H   0  0  0  0  0  0  0  0  0  0  0  0
   -4.3483  -27.7080    9.6636 H   0  0  0  0  0  0  0  0  0  0  0  0
   -6.5087  -23.0604    5.8629 H   0  0  0  0  0  0  0  0  0  0  0  0
   -7.6927  -24.2575    6.2007 H   0  0  0  0  0  0  0  0  0  0  0  0
   -7.0149  -25.2089    4.1821 H   0  0  0  0  0  0  0  0  0  0  0  0
   -4.7372  -26.1894    4.0050 H   0  0  0  0  0  0  0  0  0  0  0  0
   -4.0153  -26.1975    6.5195 H   0  0  0  0  0  0  0  0  0  0  0  0
   -3.4335  -23.0837    5.1224 H   0  0  0  0  0  0  0  0  0  0  0  0
   -1.1443  -22.7292    3.8500 H   0  0  0  0  0  0  0  0  0  0  0  0
   -0.4985  -23.1971    5.4215 H   0  0  0  0  0  0  0  0  0  0  0  0
   -2.3581  -21.2206    6.1333 H   0  0  0  0  0  0  0  0  0  0  0  0
    0.5442  -21.4407    6.1745 H   0  0  0  0  0  0  0  0  0  0  0  0
   -0.5346  -20.6002    7.2702 H   0  0  0  0  0  0  0  0  0  0  0  0
   -0.5268  -18.6048    5.8879 H   0  0  0  0  0  0  0  0  0  0  0  0
    1.1410  -19.0912    6.1569 H   0  0  0  0  0  0  0  0  0  0  0  0
    0.6966  -18.5761    3.7001 H   0  0  0  0  0  0  0  0  0  0  0  0
    1.1879  -20.2476    3.9426 H   0  0  0  0  0  0  0  0  0  0  0  0
   -2.2895  -19.3680    4.6280 H   0  0  0  0  0  0  0  0  0  0  0  0
   -2.6332  -20.7599    3.6374 H   0  0  0  0  0  0  0  0  0  0  0  0
   -4.6673  -23.1602    6.5886 H   0  0  0  0  0  0  0  0  0  0  0  0
   -4.1229  -24.2294    7.7726 H   0  0  0  0  0  0  0  0  0  0  0  0
  1  2  1  0
  2  3  1  0
  2  4  1  0
  2  5  1  0
  5  6  1  0
  6  7  2  0
  6  8  1  0
  8  9  1  0
  9 10  1  0
 10 11  2  0
 11 12  1  0
 12 13  1  0
 13 14  2  0
 13 15  1  0
 15 16  1  0
 16 17  1  0
 17 18  1  0
 18 19  1  0
 19 20  1  0
 20 21  1  0
 21 22  1  0
 12 23  1  0
 23  8  1  0
 22 17  1  0
  1 24  1  0
  1 25  1  0
  1 26  1  0
  3 27  1  0
  3 28  1  0
  3 29  1  0
  4 30  1  0
  4 31  1  0
  4 32  1  0
  9 33  1  0
  9 34  1  0
 10 35  1  0
 11 36  1  0
 12 37  1  0
 15 38  1  0
 16 39  1  0
 16 40  1  0
 17 41  1  0
 18 42  1  0
 18 43  1  0
 19 44  1  0
 19 45  1  0
 20 46  1  0
 20 47  1  0
 22 48  1  0
 22 49  1  0
 23 50  1  0
 23 51  1  0
M  END
>  <Energy>  (300) 
83.467056950147636

>  <compound_id>  (300) 
76402

>  <target_id>  (300) 
1

>  <reference_id>  (300) 
28

>  <inspiration_ids>  (300) 
[85, 28]

>  <energy_score>  (300) 
46.277342026772786

>  <distance_score>  (300) 
7.709666286861375

>  <path>  (300) 
/opt/xchem-fragalysis-2/maxwin/BulkDock/SCRATCH/511022/C76402-P28/C76402-P28.minimised.mol

>  <scratch_subdir>  (300) 
/opt/xchem-fragalysis-2/maxwin/BulkDock/SCRATCH/511022/C76402-P28

>  <fragmenstein_runtime>  (300) 
35.49513626098633

>  <fragmenstein_outcome>  (300) 
too moved

>  <fragmenstein_mode>  (300) 
expansion

>  <fragmenstein_error>  (300) 


$$$$
C76403-P85
     RDKit          3D

 48 49  0  0  0  0  0  0  0  0999 V2000
   -6.9611  -26.3071    8.9120 C   0  0  0  0  0  0  0  0  0  0  0  0
   -5.5818  -25.6459    9.0141 C   0  0  0  0  0  0  0  0  0  0  0  0
   -5.1614  -25.6562   10.4934 C   0  0  0  0  0  0  0  0  0  0  0  0
   -5.6339  -24.2174    8.4998 C   0  0  0  0  0  0  0  0  0  0  0  0
   -4.5512  -26.4198    8.3392 O   0  0  0  0  0  0  0  0  0  0  0  0
   -4.6318  -26.8098    7.0323 C   0  0  0  0  0  0  0  0  0  0  0  0
   -4.4654  -27.9758    6.8006 O   0  0  0  0  0  0  0  0  0  0  0  0
   -4.9009  -25.7290    6.1615 N   0  0  0  0  0  0  0  0  0  0  0  0
   -5.1725  -25.7059    4.7079 C   0  0  0  0  0  0  0  0  0  0  0  0
   -5.6592  -24.3826    4.2240 C   0  0  0  0  0  0  0  0  0  0  0  0
   -4.7775  -23.3819    4.2557 C   0  0  0  0  0  0  0  0  0  0  0  0
   -3.4591  -23.7012    4.9001 C   0  0  0  0  0  0  0  0  0  0  0  0
   -3.0434  -22.4464    5.7388 C   0  0  0  0  0  0  0  0  0  0  0  0
   -3.6345  -22.2164    6.7532 O   0  0  0  0  0  0  0  0  0  0  0  0
   -2.0141  -21.6881    5.0513 N   0  0  0  0  0  0  0  0  0  0  0  0
   -1.4533  -20.3742    5.3273 C   0  0  0  0  0  0  0  0  0  0  0  0
   -0.3976  -20.2422    6.4216 C   0  0  0  0  0  0  0  0  0  0  0  0
   -0.1153  -18.7936    6.7967 C   0  0  0  0  0  0  0  0  0  0  0  0
    1.2329  -18.8829    7.4792 C   0  0  0  0  0  0  0  0  0  0  0  0
    1.9177  -19.9967    6.8829 O   0  0  0  0  0  0  0  0  0  0  0  0
    0.9969  -20.6816    6.0184 C   0  0  0  0  0  0  0  0  0  0  0  0
   -3.5540  -25.0650    5.6947 C   0  0  0  0  0  0  0  0  0  0  0  0
   -6.9223  -27.3450    9.2614 H   0  0  0  0  0  0  0  0  0  0  0  0
   -7.7118  -25.7676    9.4994 H   0  0  0  0  0  0  0  0  0  0  0  0
   -7.3055  -26.3450    7.8726 H   0  0  0  0  0  0  0  0  0  0  0  0
   -5.1271  -26.6820   10.8794 H   0  0  0  0  0  0  0  0  0  0  0  0
   -5.8501  -25.0783   11.1192 H   0  0  0  0  0  0  0  0  0  0  0  0
   -4.1526  -25.2528   10.6210 H   0  0  0  0  0  0  0  0  0  0  0  0
   -6.3918  -24.0914    7.7195 H   0  0  0  0  0  0  0  0  0  0  0  0
   -4.6843  -23.9208    8.0647 H   0  0  0  0  0  0  0  0  0  0  0  0
   -5.8560  -23.5185    9.3046 H   0  0  0  0  0  0  0  0  0  0  0  0
   -6.0509  -26.3671    4.6336 H   0  0  0  0  0  0  0  0  0  0  0  0
   -4.4699  -26.2394    4.0453 H   0  0  0  0  0  0  0  0  0  0  0  0
   -6.6585  -24.2703    3.8201 H   0  0  0  0  0  0  0  0  0  0  0  0
   -5.0131  -22.3867    3.8964 H   0  0  0  0  0  0  0  0  0  0  0  0
   -2.7153  -23.8542    4.1085 H   0  0  0  0  0  0  0  0  0  0  0  0
   -1.7985  -22.1432    4.1739 H   0  0  0  0  0  0  0  0  0  0  0  0
   -1.0835  -19.9791    4.3748 H   0  0  0  0  0  0  0  0  0  0  0  0
   -2.3123  -19.7716    5.6200 H   0  0  0  0  0  0  0  0  0  0  0  0
   -0.7096  -20.7825    7.3228 H   0  0  0  0  0  0  0  0  0  0  0  0
   -0.0261  -18.1782    5.8943 H   0  0  0  0  0  0  0  0  0  0  0  0
   -0.8856  -18.3491    7.4310 H   0  0  0  0  0  0  0  0  0  0  0  0
    1.8277  -17.9735    7.3568 H   0  0  0  0  0  0  0  0  0  0  0  0
    1.1293  -19.0931    8.5481 H   0  0  0  0  0  0  0  0  0  0  0  0
    1.2386  -20.4003    4.9872 H   0  0  0  0  0  0  0  0  0  0  0  0
    1.1385  -21.7613    6.1231 H   0  0  0  0  0  0  0  0  0  0  0  0
   -2.9000  -25.8313    5.2386 H   0  0  0  0  0  0  0  0  0  0  0  0
   -3.0355  -24.8797    6.6445 H   0  0  0  0  0  0  0  0  0  0  0  0
  1  2  1  0
  2  3  1  0
  2  4  1  0
  2  5  1  0
  5  6  1  0
  6  7  2  0
  6  8  1  0
  8  9  1  0
  9 10  1  0
 10 11  2  0
 11 12  1  0
 12 13  1  0
 13 14  2  0
 13 15  1  0
 15 16  1  0
 16 17  1  0
 17 18  1  0
 18 19  1  0
 19 20  1  0
 20 21  1  0
 12 22  1  0
 22  8  1  0
 21 17  1  0
  1 23  1  0
  1 24  1  0
  1 25  1  0
  3 26  1  0
  3 27  1  0
  3 28  1  0
  4 29  1  0
  4 30  1  0
  4 31  1  0
  9 32  1  0
  9 33  1  0
 10 34  1  0
 11 35  1  0
 12 36  1  0
 15 37  1  0
 16 38  1  0
 16 39  1  0
 17 40  1  0
 18 41  1  0
 18 42  1  0
 19 43  1  0
 19 44  1  0
 21 45  1  0
 21 46  1  0
 22 47  1  0
 22 48  1  0
M  END
>  <Energy>  (301) 
84.091596683141091

>  <compound_id>  (301) 
76403

>  <target_id>  (301) 
1

>  <reference_id>  (301) 
85

>  <inspiration_ids>  (301) 
[85, 28]

>  <energy_score>  (301) 
63.10966179116213

>  <distance_score>  (301) 
8.181463234088994

>  <path>  (301) 
/opt/xchem-fragalysis-2/maxwin/BulkDock/SCRATCH/511022/C76403-P85/C76403-P85.minimised.mol

>  <scratch_subdir>  (301) 
/opt/xchem-fragalysis-2/maxwin/BulkDock/SCRATCH/511022/C76403-P85

>  <fragmenstein_runtime>  (301) 
30.11260151863098

>  <fragmenstein_outcome>  (301) 
too moved

>  <fragmenstein_mode>  (301) 
expansion

>  <fragmenstein_error>  (301) 


$$$$
C76403-P28
     RDKit          3D

 48 49  0  0  0  0  0  0  0  0999 V2000
   -6.7586  -26.0567    9.0220 C   0  0  0  0  0  0  0  0  0  0  0  0
   -5.2768  -25.7324    9.2571 C   0  0  0  0  0  0  0  0  0  0  0  0
   -4.4245  -27.0024    9.1721 C   0  0  0  0  0  0  0  0  0  0  0  0
   -5.1357  -25.1506   10.6726 C   0  0  0  0  0  0  0  0  0  0  0  0
   -4.9199  -24.6701    8.3256 O   0  0  0  0  0  0  0  0  0  0  0  0
   -4.4903  -24.9049    7.0505 C   0  0  0  0  0  0  0  0  0  0  0  0
   -3.7993  -25.8371    6.7539 O   0  0  0  0  0  0  0  0  0  0  0  0
   -5.0971  -23.9195    6.2448 N   0  0  0  0  0  0  0  0  0  0  0  0
   -5.1700  -23.7812    4.7532 C   0  0  0  0  0  0  0  0  0  0  0  0
   -3.9668  -24.1669    3.9508 C   0  0  0  0  0  0  0  0  0  0  0  0
   -2.7742  -23.6506    4.2612 C   0  0  0  0  0  0  0  0  0  0  0  0
   -2.7229  -22.7761    5.4706 C   0  0  0  0  0  0  0  0  0  0  0  0
   -2.2871  -21.3084    5.0944 C   0  0  0  0  0  0  0  0  0  0  0  0
   -3.0003  -20.7017    4.3412 O   0  0  0  0  0  0  0  0  0  0  0  0
   -1.0493  -20.9233    5.7376 N   0  0  0  0  0  0  0  0  0  0  0  0
   -0.2304  -19.7178    5.5987 C   0  0  0  0  0  0  0  0  0  0  0  0
    0.2407  -19.0573    6.9036 C   0  0  0  0  0  0  0  0  0  0  0  0
    1.3161  -19.8087    7.6607 C   0  0  0  0  0  0  0  0  0  0  0  0
    1.9767  -18.7134    8.4776 C   0  0  0  0  0  0  0  0  0  0  0  0
    1.9638  -17.5329    7.6668 O   0  0  0  0  0  0  0  0  0  0  0  0
    0.9291  -17.7069    6.6821 C   0  0  0  0  0  0  0  0  0  0  0  0
   -4.1566  -22.7038    6.0892 C   0  0  0  0  0  0  0  0  0  0  0  0
   -6.9107  -26.4466    8.0090 H   0  0  0  0  0  0  0  0  0  0  0  0
   -7.1293  -26.8013    9.7341 H   0  0  0  0  0  0  0  0  0  0  0  0
   -7.3783  -25.1597    9.1025 H   0  0  0  0  0  0  0  0  0  0  0  0
   -3.3565  -26.7643    9.2090 H   0  0  0  0  0  0  0  0  0  0  0  0
   -4.6106  -27.5540    8.2447 H   0  0  0  0  0  0  0  0  0  0  0  0
   -4.6500  -27.6865    9.9981 H   0  0  0  0  0  0  0  0  0  0  0  0
   -5.5965  -24.1606   10.7450 H   0  0  0  0  0  0  0  0  0  0  0  0
   -5.5914  -25.8027   11.4258 H   0  0  0  0  0  0  0  0  0  0  0  0
   -4.0823  -25.0295   10.9423 H   0  0  0  0  0  0  0  0  0  0  0  0
   -5.6918  -22.8803    4.3922 H   0  0  0  0  0  0  0  0  0  0  0  0
   -5.8984  -24.5721    4.5129 H   0  0  0  0  0  0  0  0  0  0  0  0
   -4.0880  -24.8225    3.0949 H   0  0  0  0  0  0  0  0  0  0  0  0
   -1.8771  -23.8747    3.6958 H   0  0  0  0  0  0  0  0  0  0  0  0
   -2.0256  -23.2419    6.1636 H   0  0  0  0  0  0  0  0  0  0  0  0
   -0.6779  -21.7190    6.2427 H   0  0  0  0  0  0  0  0  0  0  0  0
    0.6244  -20.0001    4.9757 H   0  0  0  0  0  0  0  0  0  0  0  0
   -0.8279  -19.0041    5.0217 H   0  0  0  0  0  0  0  0  0  0  0  0
   -0.6256  -18.9070    7.5576 H   0  0  0  0  0  0  0  0  0  0  0  0
    0.9229  -20.6167    8.2839 H   0  0  0  0  0  0  0  0  0  0  0  0
    2.0456  -20.2405    6.9656 H   0  0  0  0  0  0  0  0  0  0  0  0
    1.4149  -18.5017    9.3929 H   0  0  0  0  0  0  0  0  0  0  0  0
    3.0065  -18.9596    8.7511 H   0  0  0  0  0  0  0  0  0  0  0  0
    0.2448  -16.8725    6.7941 H   0  0  0  0  0  0  0  0  0  0  0  0
    1.3877  -17.6330    5.6996 H   0  0  0  0  0  0  0  0  0  0  0  0
   -3.9590  -22.4183    7.1354 H   0  0  0  0  0  0  0  0  0  0  0  0
   -4.7297  -21.8366    5.7325 H   0  0  0  0  0  0  0  0  0  0  0  0
  1  2  1  0
  2  3  1  0
  2  4  1  0
  2  5  1  0
  5  6  1  0
  6  7  2  0
  6  8  1  0
  8  9  1  0
  9 10  1  0
 10 11  2  0
 11 12  1  0
 12 13  1  0
 13 14  2  0
 13 15  1  0
 15 16  1  0
 16 17  1  0
 17 18  1  0
 18 19  1  0
 19 20  1  0
 20 21  1  0
 12 22  1  0
 22  8  1  0
 21 17  1  0
  1 23  1  0
  1 24  1  0
  1 25  1  0
  3 26  1  0
  3 27  1  0
  3 28  1  0
  4 29  1  0
  4 30  1  0
  4 31  1  0
  9 32  1  0
  9 33  1  0
 10 34  1  0
 11 35  1  0
 12 36  1  0
 15 37  1  0
 16 38  1  0
 16 39  1  0
 17 40  1  0
 18 41  1  0
 18 42  1  0
 19 43  1  0
 19 44  1  0
 21 45  1  0
 21 46  1  0
 22 47  1  0
 22 48  1  0
M  END
>  <Energy>  (302) 
74.639030911120685

>  <compound_id>  (302) 
76403

>  <target_id>  (302) 
1

>  <reference_id>  (302) 
28

>  <inspiration_ids>  (302) 
[85, 28]

>  <energy_score>  (302) 
53.65709601914277

>  <distance_score>  (302) 
8.337060405385348

>  <path>  (302) 
/opt/xchem-fragalysis-2/maxwin/BulkDock/SCRATCH/511022/C76403-P28/C76403-P28.minimised.mol

>  <scratch_subdir>  (302) 
/opt/xchem-fragalysis-2/maxwin/BulkDock/SCRATCH/511022/C76403-P28

>  <fragmenstein_runtime>  (302) 
30.1296706199646

>  <fragmenstein_outcome>  (302) 
too moved

>  <fragmenstein_mode>  (302) 
expansion

>  <fragmenstein_error>  (302) 


$$$$
C8676-P114
     RDKit          3D

 37 39  0  0  0  0  0  0  0  0999 V2000
   -1.6547   -5.9288   23.0612 C   0  0  0  0  0  0  0  0  0  0  0  0
   -0.9010   -7.2262   22.8062 C   0  0  0  0  0  0  0  0  0  0  0  0
   -0.3301   -7.3204   21.4814 N   0  0  0  0  0  0  0  0  0  0  0  0
    0.4981   -6.3673   20.9308 C   0  0  0  0  0  0  0  0  0  0  0  0
    0.7106   -6.5775   19.6550 N   0  0  0  0  0  0  0  0  0  0  0  0
    0.0448   -7.7472   19.3869 C   0  0  0  0  0  0  0  0  0  0  0  0
   -0.5671   -8.2839   20.5238 C   0  0  0  0  0  0  0  0  0  0  0  0
   -1.5848   -9.7517   20.6167 C   0  0  0  0  0  0  0  0  0  0  0  0
   -1.4512  -11.4722   21.6427 N   0  0  0  0  0  0  0  0  0  0  0  0
   -1.1719  -10.4635   20.9081 C   0  0  0  0  0  0  0  0  0  0  0  0
   -0.1547  -12.3050   22.7222 C   0  0  0  0  0  0  0  0  0  0  0  0
    0.9721  -12.0039   22.9575 O   0  0  0  0  0  0  0  0  0  0  0  0
   -0.7265  -13.9827   23.9230 C   0  0  0  0  0  0  0  0  0  0  0  0
   -1.7943  -13.3695   25.4322 C   0  0  0  0  0  0  0  0  0  0  0  0
   -3.1474  -13.5149   25.6773 C   0  0  0  0  0  0  0  0  0  0  0  0
   -3.6721  -14.6968   25.3845 N   0  0  0  0  0  0  0  0  0  0  0  0
   -4.7960  -15.2960   25.8802 C   0  0  0  0  0  0  0  0  0  0  0  0
   -4.3652  -16.5741   26.0773 C   0  0  0  0  0  0  0  0  0  0  0  0
   -3.1030  -16.6990   25.5323 N   0  0  0  0  0  0  0  0  0  0  0  0
   -2.7778  -15.5802   24.8657 C   0  0  0  0  0  0  0  0  0  0  0  0
   -1.5544  -15.1779   23.9501 N   0  0  0  0  0  0  0  0  0  0  0  0
   -2.4431   -5.7793   22.3158 H   0  0  0  0  0  0  0  0  0  0  0  0
   -0.9882   -5.0613   23.0247 H   0  0  0  0  0  0  0  0  0  0  0  0
   -2.1196   -5.9519   24.0519 H   0  0  0  0  0  0  0  0  0  0  0  0
   -0.0819   -7.3475   23.5219 H   0  0  0  0  0  0  0  0  0  0  0  0
   -1.6047   -8.0517   22.9255 H   0  0  0  0  0  0  0  0  0  0  0  0
    0.8847   -5.5326   21.5006 H   0  0  0  0  0  0  0  0  0  0  0  0
    0.0438   -8.1599   18.3866 H   0  0  0  0  0  0  0  0  0  0  0  0
   -2.5225   -9.2359   21.1692 H   0  0  0  0  0  0  0  0  0  0  0  0
   -2.1621   -9.8265   19.5433 H   0  0  0  0  0  0  0  0  0  0  0  0
   -1.1608  -11.3865   20.1156 H   0  0  0  0  0  0  0  0  0  0  0  0
    0.0392  -10.4811   20.9942 H   0  0  0  0  0  0  0  0  0  0  0  0
   -0.7561  -10.0774   22.0607 H   0  0  0  0  0  0  0  0  0  0  0  0
   -1.6119  -12.3715   25.7000 H   0  0  0  0  0  0  0  0  0  0  0  0
   -3.7599  -12.8239   26.2462 H   0  0  0  0  0  0  0  0  0  0  0  0
   -5.6667  -14.7513   26.2132 H   0  0  0  0  0  0  0  0  0  0  0  0
   -4.8503  -17.3966   26.5858 H   0  0  0  0  0  0  0  0  0  0  0  0
  1  2  1  0
  2  3  1  0
  3  4  1  0
  4  5  2  0
  5  6  1  0
  6  7  2  0
  7  8  1  0
  8  9  1  0
  9 10  1  0
  9 11  1  0
 11 12  2  0
 11 13  1  0
 13 14  1  0
 14 15  2  0
 15 16  1  0
 16 17  1  0
 17 18  2  0
 18 19  1  0
 19 20  2  0
 20 21  1  0
  7  3  1  0
 21 13  2  0
 20 16  1  0
  1 22  1  0
  1 23  1  0
  1 24  1  0
  2 25  1  0
  2 26  1  0
  4 27  1  0
  6 28  1  0
  8 29  1  0
  8 30  1  0
 10 31  1  0
 10 32  1  0
 10 33  1  0
 14 34  1  0
 15 35  1  0
 17 36  1  0
 18 37  1  0
M  END
>  <Energy>  (303) 
1186.2283408856017

>  <compound_id>  (303) 
8676

>  <target_id>  (303) 
1

>  <reference_id>  (303) 
114

>  <inspiration_ids>  (303) 
[114, 107]

>  <energy_score>  (303) 
1104.780809515219

>  <distance_score>  (303) 
14.455674174128378

>  <path>  (303) 
/opt/xchem-fragalysis-2/maxwin/BulkDock/SCRATCH/511022/C8676-P114/C8676-P114.minimised.mol

>  <scratch_subdir>  (303) 
/opt/xchem-fragalysis-2/maxwin/BulkDock/SCRATCH/511022/C8676-P114

>  <fragmenstein_runtime>  (303) 
26.767164945602417

>  <fragmenstein_outcome>  (303) 
too moved

>  <fragmenstein_mode>  (303) 
expansion

>  <fragmenstein_error>  (303) 


$$$$
C8676-P107
     RDKit          3D

 37 39  0  0  0  0  0  0  0  0999 V2000
    0.1611   -6.2420   25.3975 C   0  0  0  0  0  0  0  0  0  0  0  0
   -0.6032   -5.6788   24.2128 C   0  0  0  0  0  0  0  0  0  0  0  0
   -0.5617   -6.5554   23.0583 N   0  0  0  0  0  0  0  0  0  0  0  0
    0.4072   -6.4869   22.0900 C   0  0  0  0  0  0  0  0  0  0  0  0
    0.1937   -7.3610   21.1400 N   0  0  0  0  0  0  0  0  0  0  0  0
   -0.9487   -8.0407   21.5128 C   0  0  0  0  0  0  0  0  0  0  0  0
   -1.4738   -7.5490   22.7046 C   0  0  0  0  0  0  0  0  0  0  0  0
   -2.9731   -7.8333   23.6069 C   0  0  0  0  0  0  0  0  0  0  0  0
   -3.8605   -9.5691   23.9637 N   0  0  0  0  0  0  0  0  0  0  0  0
   -3.4776   -8.4496   23.4062 C   0  0  0  0  0  0  0  0  0  0  0  0
   -4.3818  -10.0018   25.4336 C   0  0  0  0  0  0  0  0  0  0  0  0
   -4.4532   -9.4240   26.4361 O   0  0  0  0  0  0  0  0  0  0  0  0
   -5.0250  -11.4738   25.5208 C   0  0  0  0  0  0  0  0  0  0  0  0
   -6.2934  -11.7288   24.7405 C   0  0  0  0  0  0  0  0  0  0  0  0
   -7.0032  -12.8286   25.0610 C   0  0  0  0  0  0  0  0  0  0  0  0
   -6.5451  -13.6750   26.0585 N   0  0  0  0  0  0  0  0  0  0  0  0
   -7.1169  -14.8031   26.5997 C   0  0  0  0  0  0  0  0  0  0  0  0
   -6.2329  -15.2276   27.5608 C   0  0  0  0  0  0  0  0  0  0  0  0
   -5.1389  -14.3963   27.6084 N   0  0  0  0  0  0  0  0  0  0  0  0
   -5.3358  -13.4444   26.7086 C   0  0  0  0  0  0  0  0  0  0  0  0
   -4.5756  -12.3234   26.4238 N   0  0  0  0  0  0  0  0  0  0  0  0
    0.1322   -5.5394   26.2360 H   0  0  0  0  0  0  0  0  0  0  0  0
   -0.2705   -7.1891   25.7345 H   0  0  0  0  0  0  0  0  0  0  0  0
    1.2099   -6.4240   25.1407 H   0  0  0  0  0  0  0  0  0  0  0  0
   -1.6499   -5.4981   24.4729 H   0  0  0  0  0  0  0  0  0  0  0  0
   -0.1757   -4.7154   23.9115 H   0  0  0  0  0  0  0  0  0  0  0  0
    1.2323   -5.7881   22.1303 H   0  0  0  0  0  0  0  0  0  0  0  0
   -1.3424   -8.8260   20.8774 H   0  0  0  0  0  0  0  0  0  0  0  0
   -3.5234   -6.7208   23.7664 H   0  0  0  0  0  0  0  0  0  0  0  0
   -2.4078   -7.7455   24.6877 H   0  0  0  0  0  0  0  0  0  0  0  0
   -4.1051   -8.2362   22.2934 H   0  0  0  0  0  0  0  0  0  0  0  0
   -3.0934   -9.2531   22.5443 H   0  0  0  0  0  0  0  0  0  0  0  0
   -4.6952   -8.1603   23.6640 H   0  0  0  0  0  0  0  0  0  0  0  0
   -6.5794  -11.0175   23.9778 H   0  0  0  0  0  0  0  0  0  0  0  0
   -7.9351  -13.0851   24.5756 H   0  0  0  0  0  0  0  0  0  0  0  0
   -8.0733  -15.1777   26.2697 H   0  0  0  0  0  0  0  0  0  0  0  0
   -6.3145  -16.0811   28.2223 H   0  0  0  0  0  0  0  0  0  0  0  0
  1  2  1  0
  2  3  1  0
  3  4  1  0
  4  5  2  0
  5  6  1  0
  6  7  2  0
  7  8  1  0
  8  9  1  0
  9 10  1  0
  9 11  1  0
 11 12  2  0
 11 13  1  0
 13 14  1  0
 14 15  2  0
 15 16  1  0
 16 17  1  0
 17 18  2  0
 18 19  1  0
 19 20  2  0
 20 21  1  0
  7  3  1  0
 21 13  2  0
 20 16  1  0
  1 22  1  0
  1 23  1  0
  1 24  1  0
  2 25  1  0
  2 26  1  0
  4 27  1  0
  6 28  1  0
  8 29  1  0
  8 30  1  0
 10 31  1  0
 10 32  1  0
 10 33  1  0
 14 34  1  0
 15 35  1  0
 17 36  1  0
 18 37  1  0
M  END
>  <Energy>  (304) 
825.73365222987809

>  <compound_id>  (304) 
8676

>  <target_id>  (304) 
1

>  <reference_id>  (304) 
107

>  <inspiration_ids>  (304) 
[114, 107]

>  <energy_score>  (304) 
744.286120859512

>  <distance_score>  (304) 
14.272848800927088

>  <path>  (304) 
/opt/xchem-fragalysis-2/maxwin/BulkDock/SCRATCH/511022/C8676-P107/C8676-P107.minimised.mol

>  <scratch_subdir>  (304) 
/opt/xchem-fragalysis-2/maxwin/BulkDock/SCRATCH/511022/C8676-P107

>  <fragmenstein_runtime>  (304) 
30.01419687271118

>  <fragmenstein_outcome>  (304) 
too moved

>  <fragmenstein_mode>  (304) 
expansion

>  <fragmenstein_error>  (304) 


$$$$
C8677-P114
     RDKit          3D

 35 37  0  0  0  0  0  0  0  0999 V2000
   -1.3517  -16.0425   22.7656 C   0  0  0  0  0  0  0  0  0  0  0  0
    0.1094  -15.5928   22.9852 C   0  0  0  0  0  0  0  0  0  0  0  0
    0.7320  -14.4097   23.8355 N   0  0  0  0  0  0  0  0  0  0  0  0
    2.5345  -13.6023   23.6487 C   0  0  0  0  0  0  0  0  0  0  0  0
    3.4299  -12.7104   22.1767 C   0  0  0  0  0  0  0  0  0  0  0  0
    3.5338  -13.3089   21.0041 N   0  0  0  0  0  0  0  0  0  0  0  0
    4.5739  -12.9446   20.1180 C   0  0  0  0  0  0  0  0  0  0  0  0
    5.3177  -12.0342   20.7075 C   0  0  0  0  0  0  0  0  0  0  0  0
    4.4393  -11.6816   21.8089 N   0  0  0  0  0  0  0  0  0  0  0  0
    4.9892  -10.7641   22.6997 C   0  0  0  0  0  0  0  0  0  0  0  0
   -0.1320  -14.6042   25.2503 C   0  0  0  0  0  0  0  0  0  0  0  0
    0.2072  -13.9940   26.6245 C   0  0  0  0  0  0  0  0  0  0  0  0
   -0.4941  -14.3554   27.7165 C   0  0  0  0  0  0  0  0  0  0  0  0
   -1.5479  -15.2392   27.5996 N   0  0  0  0  0  0  0  0  0  0  0  0
   -2.3934  -15.7594   28.5499 C   0  0  0  0  0  0  0  0  0  0  0  0
   -3.2592  -16.5595   27.8496 C   0  0  0  0  0  0  0  0  0  0  0  0
   -2.9642  -16.5353   26.5081 N   0  0  0  0  0  0  0  0  0  0  0  0
   -1.9162  -15.7399   26.3696 C   0  0  0  0  0  0  0  0  0  0  0  0
   -1.2053  -15.4083   25.2472 N   0  0  0  0  0  0  0  0  0  0  0  0
   -1.6962  -16.7588   23.5190 H   0  0  0  0  0  0  0  0  0  0  0  0
   -2.1151  -15.2951   22.6279 H   0  0  0  0  0  0  0  0  0  0  0  0
   -1.3766  -16.6417   21.8427 H   0  0  0  0  0  0  0  0  0  0  0  0
    0.3991  -15.4628   21.9860 H   0  0  0  0  0  0  0  0  0  0  0  0
    0.4650  -16.5296   23.4115 H   0  0  0  0  0  0  0  0  0  0  0  0
    2.4115  -12.7619   24.2992 H   0  0  0  0  0  0  0  0  0  0  0  0
    3.2731  -14.3905   23.8084 H   0  0  0  0  0  0  0  0  0  0  0  0
    4.6379  -13.4220   19.1684 H   0  0  0  0  0  0  0  0  0  0  0  0
    6.1833  -11.5002   20.3899 H   0  0  0  0  0  0  0  0  0  0  0  0
    4.7477   -9.8678   23.2269 H   0  0  0  0  0  0  0  0  0  0  0  0
    5.7386  -11.1347   23.4210 H   0  0  0  0  0  0  0  0  0  0  0  0
    3.8973  -10.6779   22.7854 H   0  0  0  0  0  0  0  0  0  0  0  0
    1.0237  -13.2958   26.6597 H   0  0  0  0  0  0  0  0  0  0  0  0
   -0.2751  -13.9704   28.7026 H   0  0  0  0  0  0  0  0  0  0  0  0
   -2.3075  -15.5157   29.5976 H   0  0  0  0  0  0  0  0  0  0  0  0
   -4.0895  -17.1380   28.2275 H   0  0  0  0  0  0  0  0  0  0  0  0
  1  2  1  0
  2  3  1  0
  3  4  1  0
  4  5  1  0
  5  6  2  0
  6  7  1  0
  7  8  2  0
  8  9  1  0
  9 10  1  0
  3 11  1  0
 11 12  1  0
 12 13  2  0
 13 14  1  0
 14 15  1  0
 15 16  2  0
 16 17  1  0
 17 18  2  0
 18 19  1  0
  9  5  1  0
 19 11  2  0
 18 14  1  0
  1 20  1  0
  1 21  1  0
  1 22  1  0
  2 23  1  0
  2 24  1  0
  4 25  1  0
  4 26  1  0
  7 27  1  0
  8 28  1  0
 10 29  1  0
 10 30  1  0
 10 31  1  0
 12 32  1  0
 13 33  1  0
 15 34  1  0
 16 35  1  0
M  END
>  <Energy>  (305) 
325.03789714268044

>  <compound_id>  (305) 
8677

>  <target_id>  (305) 
1

>  <reference_id>  (305) 
114

>  <inspiration_ids>  (305) 
[114, 107]

>  <energy_score>  (305) 
287.7299325034412

>  <distance_score>  (305) 
14.393072588954048

>  <path>  (305) 
/opt/xchem-fragalysis-2/maxwin/BulkDock/SCRATCH/511022/C8677-P114/C8677-P114.minimised.mol

>  <scratch_subdir>  (305) 
/opt/xchem-fragalysis-2/maxwin/BulkDock/SCRATCH/511022/C8677-P114

>  <fragmenstein_runtime>  (305) 
16.574804544448853

>  <fragmenstein_outcome>  (305) 
too moved

>  <fragmenstein_mode>  (305) 
expansion

>  <fragmenstein_error>  (305) 


$$$$
C8677-P107
     RDKit          3D

 35 37  0  0  0  0  0  0  0  0999 V2000
   -2.9878  -17.1288   22.4958 C   0  0  0  0  0  0  0  0  0  0  0  0
   -1.5950  -16.5124   22.5550 C   0  0  0  0  0  0  0  0  0  0  0  0
   -1.4976  -15.4771   23.6038 N   0  0  0  0  0  0  0  0  0  0  0  0
   -0.2448  -14.3754   23.3003 C   0  0  0  0  0  0  0  0  0  0  0  0
   -0.3348  -12.5291   22.5436 C   0  0  0  0  0  0  0  0  0  0  0  0
    0.4385  -11.3367   22.5575 N   0  0  0  0  0  0  0  0  0  0  0  0
   -0.1663  -10.1780   21.8149 C   0  0  0  0  0  0  0  0  0  0  0  0
   -1.3163  -10.4837   21.1652 C   0  0  0  0  0  0  0  0  0  0  0  0
   -1.4678  -11.8678   21.2623 N   0  0  0  0  0  0  0  0  0  0  0  0
   -2.4354  -12.5378   20.3763 C   0  0  0  0  0  0  0  0  0  0  0  0
   -1.8972  -15.8513   24.9406 C   0  0  0  0  0  0  0  0  0  0  0  0
   -1.4523  -17.1911   25.5338 C   0  0  0  0  0  0  0  0  0  0  0  0
   -1.8812  -17.5228   26.7625 C   0  0  0  0  0  0  0  0  0  0  0  0
   -2.7174  -16.6562   27.4391 N   0  0  0  0  0  0  0  0  0  0  0  0
   -3.1965  -16.6945   28.7233 C   0  0  0  0  0  0  0  0  0  0  0  0
   -4.0894  -15.6574   28.8112 C   0  0  0  0  0  0  0  0  0  0  0  0
   -4.0621  -14.9089   27.6607 N   0  0  0  0  0  0  0  0  0  0  0  0
   -3.1791  -15.4848   26.8573 C   0  0  0  0  0  0  0  0  0  0  0  0
   -2.7473  -15.0965   25.6147 N   0  0  0  0  0  0  0  0  0  0  0  0
   -3.0663  -17.7959   21.6312 H   0  0  0  0  0  0  0  0  0  0  0  0
   -3.7556  -16.3537   22.3999 H   0  0  0  0  0  0  0  0  0  0  0  0
   -3.2140  -17.7202   23.3870 H   0  0  0  0  0  0  0  0  0  0  0  0
   -0.8323  -17.2839   22.7010 H   0  0  0  0  0  0  0  0  0  0  0  0
   -1.4280  -16.0732   21.5746 H   0  0  0  0  0  0  0  0  0  0  0  0
    0.2992  -14.9561   22.5747 H   0  0  0  0  0  0  0  0  0  0  0  0
    0.3318  -14.3948   24.2145 H   0  0  0  0  0  0  0  0  0  0  0  0
    0.3286   -9.2149   21.8036 H   0  0  0  0  0  0  0  0  0  0  0  0
   -1.9535   -9.8942   20.5217 H   0  0  0  0  0  0  0  0  0  0  0  0
   -3.4257  -12.1168   20.5809 H   0  0  0  0  0  0  0  0  0  0  0  0
   -2.1851  -12.2679   19.3456 H   0  0  0  0  0  0  0  0  0  0  0  0
   -2.4411  -13.6196   20.5104 H   0  0  0  0  0  0  0  0  0  0  0  0
   -0.7832  -17.8143   24.9590 H   0  0  0  0  0  0  0  0  0  0  0  0
   -1.5928  -18.4353   27.2657 H   0  0  0  0  0  0  0  0  0  0  0  0
   -2.8537  -17.4168   29.4434 H   0  0  0  0  0  0  0  0  0  0  0  0
   -4.7094  -15.3740   29.6514 H   0  0  0  0  0  0  0  0  0  0  0  0
  1  2  1  0
  2  3  1  0
  3  4  1  0
  4  5  1  0
  5  6  2  0
  6  7  1  0
  7  8  2  0
  8  9  1  0
  9 10  1  0
  3 11  1  0
 11 12  1  0
 12 13  2  0
 13 14  1  0
 14 15  1  0
 15 16  2  0
 16 17  1  0
 17 18  2  0
 18 19  1  0
  9  5  1  0
 19 11  2  0
 18 14  1  0
  1 20  1  0
  1 21  1  0
  1 22  1  0
  2 23  1  0
  2 24  1  0
  4 25  1  0
  4 26  1  0
  7 27  1  0
  8 28  1  0
 10 29  1  0
 10 30  1  0
 10 31  1  0
 12 32  1  0
 13 33  1  0
 15 34  1  0
 16 35  1  0
M  END
>  <Energy>  (306) 
183.23440399095057

>  <compound_id>  (306) 
8677

>  <target_id>  (306) 
1

>  <reference_id>  (306) 
107

>  <inspiration_ids>  (306) 
[114, 107]

>  <energy_score>  (306) 
145.9264393517028

>  <distance_score>  (306) 
14.191182070906601

>  <path>  (306) 
/opt/xchem-fragalysis-2/maxwin/BulkDock/SCRATCH/511022/C8677-P107/C8677-P107.minimised.mol

>  <scratch_subdir>  (306) 
/opt/xchem-fragalysis-2/maxwin/BulkDock/SCRATCH/511022/C8677-P107

>  <fragmenstein_runtime>  (306) 
18.73212742805481

>  <fragmenstein_outcome>  (306) 
too moved

>  <fragmenstein_mode>  (306) 
expansion

>  <fragmenstein_error>  (306) 


$$$$
C8678-P114
     RDKit          3D

 31 33  0  0  0  0  0  0  0  0999 V2000
   -6.1478  -15.6499   16.9675 O   0  0  0  0  0  0  0  0  0  0  0  0
   -5.1775  -15.9100   17.6209 C   0  0  0  0  0  0  0  0  0  0  0  0
   -3.7859  -15.5490   17.4320 N   0  0  0  0  0  0  0  0  0  0  0  0
   -3.1260  -14.6516   16.4155 C   0  0  0  0  0  0  0  0  0  0  0  0
   -3.0898  -15.0125   14.8881 C   0  0  0  0  0  0  0  0  0  0  0  0
   -1.8018  -14.6671   14.0847 C   0  0  0  0  0  0  0  0  0  0  0  0
   -0.7890  -15.6252   14.1009 N   0  0  0  0  0  0  0  0  0  0  0  0
    0.1711  -15.1815   13.3243 C   0  0  0  0  0  0  0  0  0  0  0  0
   -0.1144  -13.9521   12.8320 N   0  0  0  0  0  0  0  0  0  0  0  0
   -1.3920  -13.6419   13.2218 C   0  0  0  0  0  0  0  0  0  0  0  0
   -2.1632  -12.0124   12.6182 Br  0  0  0  0  0  0  0  0  0  0  0  0
   -5.5036  -16.7089   18.9648 C   0  0  0  0  0  0  0  0  0  0  0  0
   -5.9743  -18.1370   18.7885 C   0  0  0  0  0  0  0  0  0  0  0  0
   -6.4435  -18.7630   19.8837 C   0  0  0  0  0  0  0  0  0  0  0  0
   -6.4548  -18.0930   21.0968 N   0  0  0  0  0  0  0  0  0  0  0  0
   -6.9139  -18.4980   22.3262 C   0  0  0  0  0  0  0  0  0  0  0  0
   -6.6688  -17.4407   23.1663 C   0  0  0  0  0  0  0  0  0  0  0  0
   -6.1007  -16.3948   22.4805 N   0  0  0  0  0  0  0  0  0  0  0  0
   -5.9672  -16.7915   21.2237 C   0  0  0  0  0  0  0  0  0  0  0  0
   -5.4820  -16.0966   20.1277 N   0  0  0  0  0  0  0  0  0  0  0  0
   -3.2476  -15.8747   18.2297 H   0  0  0  0  0  0  0  0  0  0  0  0
   -2.1139  -14.4911   16.7868 H   0  0  0  0  0  0  0  0  0  0  0  0
   -3.6481  -13.6924   16.5128 H   0  0  0  0  0  0  0  0  0  0  0  0
   -3.9417  -14.5346   14.3896 H   0  0  0  0  0  0  0  0  0  0  0  0
   -3.2422  -16.0950   14.7897 H   0  0  0  0  0  0  0  0  0  0  0  0
    1.0758  -15.7175   13.0829 H   0  0  0  0  0  0  0  0  0  0  0  0
    0.4742  -13.3835   12.2434 H   0  0  0  0  0  0  0  0  0  0  0  0
   -5.9542  -18.5748   17.7993 H   0  0  0  0  0  0  0  0  0  0  0  0
   -6.8319  -19.7737   19.8658 H   0  0  0  0  0  0  0  0  0  0  0  0
   -7.3501  -19.4736   22.4721 H   0  0  0  0  0  0  0  0  0  0  0  0
   -6.8632  -17.3576   24.2254 H   0  0  0  0  0  0  0  0  0  0  0  0
  1  2  2  0
  2  3  1  0
  3  4  1  0
  4  5  1  0
  5  6  1  0
  6  7  1  0
  7  8  2  0
  8  9  1  0
  9 10  1  0
 10 11  1  0
  2 12  1  0
 12 13  1  0
 13 14  2  0
 14 15  1  0
 15 16  1  0
 16 17  2  0
 17 18  1  0
 18 19  2  0
 19 20  1  0
 10  6  2  0
 20 12  2  0
 19 15  1  0
  3 21  1  0
  4 22  1  0
  4 23  1  0
  5 24  1  0
  5 25  1  0
  8 26  1  0
  9 27  1  0
 13 28  1  0
 14 29  1  0
 16 30  1  0
 17 31  1  0
M  END
>  <Energy>  (307) 
76.211919975537143

>  <compound_id>  (307) 
8678

>  <target_id>  (307) 
1

>  <reference_id>  (307) 
114

>  <inspiration_ids>  (307) 
[114, 107]

>  <energy_score>  (307) 
-3.924562063289386

>  <distance_score>  (307) 
15.235285878195725

>  <path>  (307) 
/opt/xchem-fragalysis-2/maxwin/BulkDock/SCRATCH/511022/C8678-P114/C8678-P114.minimised.mol

>  <scratch_subdir>  (307) 
/opt/xchem-fragalysis-2/maxwin/BulkDock/SCRATCH/511022/C8678-P114

>  <fragmenstein_runtime>  (307) 
28.72714638710022

>  <fragmenstein_outcome>  (307) 
too moved

>  <fragmenstein_mode>  (307) 
expansion

>  <fragmenstein_error>  (307) 


$$$$
C8678-P107
     RDKit          3D

 31 33  0  0  0  0  0  0  0  0999 V2000
   -7.1612  -13.5883   21.5575 O   0  0  0  0  0  0  0  0  0  0  0  0
   -6.9113  -12.9503   22.5430 C   0  0  0  0  0  0  0  0  0  0  0  0
   -6.2838  -11.6376   22.6941 N   0  0  0  0  0  0  0  0  0  0  0  0
   -5.8434  -10.6299   21.6617 C   0  0  0  0  0  0  0  0  0  0  0  0
   -4.8488   -9.4732   22.0361 C   0  0  0  0  0  0  0  0  0  0  0  0
   -3.4129   -9.3853   21.4541 C   0  0  0  0  0  0  0  0  0  0  0  0
   -2.3595   -9.3361   22.3699 N   0  0  0  0  0  0  0  0  0  0  0  0
   -1.2472   -9.1636   21.6852 C   0  0  0  0  0  0  0  0  0  0  0  0
   -1.5042   -9.1612   20.3619 N   0  0  0  0  0  0  0  0  0  0  0  0
   -2.8587   -9.1635   20.2031 C   0  0  0  0  0  0  0  0  0  0  0  0
   -3.6070   -8.7880   18.5220 Br  0  0  0  0  0  0  0  0  0  0  0  0
   -7.2441  -13.7702   23.8569 C   0  0  0  0  0  0  0  0  0  0  0  0
   -6.5194  -15.1050   23.9510 C   0  0  0  0  0  0  0  0  0  0  0  0
   -6.8463  -15.9133   24.9730 C   0  0  0  0  0  0  0  0  0  0  0  0
   -7.8201  -15.5062   25.8683 N   0  0  0  0  0  0  0  0  0  0  0  0
   -8.3199  -16.1418   26.9794 C   0  0  0  0  0  0  0  0  0  0  0  0
   -9.3004  -15.3093   27.4566 C   0  0  0  0  0  0  0  0  0  0  0  0
   -9.3949  -14.1777   26.6806 N   0  0  0  0  0  0  0  0  0  0  0  0
   -8.4751  -14.2781   25.7344 C   0  0  0  0  0  0  0  0  0  0  0  0
   -8.1554  -13.3881   24.7175 N   0  0  0  0  0  0  0  0  0  0  0  0
   -6.3074  -11.3692   23.6740 H   0  0  0  0  0  0  0  0  0  0  0  0
   -6.7858  -10.1631   21.3490 H   0  0  0  0  0  0  0  0  0  0  0  0
   -5.4870  -11.1908   20.7912 H   0  0  0  0  0  0  0  0  0  0  0  0
   -5.3282   -8.5287   21.7432 H   0  0  0  0  0  0  0  0  0  0  0  0
   -4.7638   -9.4402   23.1300 H   0  0  0  0  0  0  0  0  0  0  0  0
   -0.2456   -9.0642   22.0781 H   0  0  0  0  0  0  0  0  0  0  0  0
   -0.8025   -9.1479   19.6296 H   0  0  0  0  0  0  0  0  0  0  0  0
   -5.7961  -15.3603   23.1869 H   0  0  0  0  0  0  0  0  0  0  0  0
   -6.3903  -16.8826   25.1276 H   0  0  0  0  0  0  0  0  0  0  0  0
   -7.9428  -17.0920   27.3258 H   0  0  0  0  0  0  0  0  0  0  0  0
   -9.9405  -15.4502   28.3184 H   0  0  0  0  0  0  0  0  0  0  0  0
  1  2  2  0
  2  3  1  0
  3  4  1  0
  4  5  1  0
  5  6  1  0
  6  7  1  0
  7  8  2  0
  8  9  1  0
  9 10  1  0
 10 11  1  0
  2 12  1  0
 12 13  1  0
 13 14  2  0
 14 15  1  0
 15 16  1  0
 16 17  2  0
 17 18  1  0
 18 19  2  0
 19 20  1  0
 10  6  2  0
 20 12  2  0
 19 15  1  0
  3 21  1  0
  4 22  1  0
  4 23  1  0
  5 24  1  0
  5 25  1  0
  8 26  1  0
  9 27  1  0
 13 28  1  0
 14 29  1  0
 16 30  1  0
 17 31  1  0
M  END
>  <Energy>  (308) 
80.900962150847491

>  <compound_id>  (308) 
8678

>  <target_id>  (308) 
1

>  <reference_id>  (308) 
107

>  <inspiration_ids>  (308) 
[114, 107]

>  <energy_score>  (308) 
0.7644801120239322

>  <distance_score>  (308) 
13.742730324795032

>  <path>  (308) 
/opt/xchem-fragalysis-2/maxwin/BulkDock/SCRATCH/511022/C8678-P107/C8678-P107.minimised.mol

>  <scratch_subdir>  (308) 
/opt/xchem-fragalysis-2/maxwin/BulkDock/SCRATCH/511022/C8678-P107

>  <fragmenstein_runtime>  (308) 
23.003740310668945

>  <fragmenstein_outcome>  (308) 
too moved

>  <fragmenstein_mode>  (308) 
expansion

>  <fragmenstein_error>  (308) 


$$$$
C8679-P114
     RDKit          3D

 31 33  0  0  0  0  0  0  0  0999 V2000
   -1.0358  -22.0795   21.7936 O   0  0  0  0  0  0  0  0  0  0  0  0
   -1.7935  -20.7449   22.3003 C   0  0  0  0  0  0  0  0  0  0  0  0
   -1.4532  -19.9903   21.5837 N   0  0  0  0  0  0  0  0  0  0  0  0
   -0.5590  -19.7765   20.4842 C   0  0  0  0  0  0  0  0  0  0  0  0
   -0.7783  -18.8107   19.6090 N   0  0  0  0  0  0  0  0  0  0  0  0
    0.0429  -19.0812   18.5419 C   0  0  0  0  0  0  0  0  0  0  0  0
    0.9322  -20.0741   18.8522 C   0  0  0  0  0  0  0  0  0  0  0  0
    0.6118  -20.4450   20.1384 N   0  0  0  0  0  0  0  0  0  0  0  0
    1.3692  -21.3870   20.9412 C   0  0  0  0  0  0  0  0  0  0  0  0
    2.8751  -21.3294   20.7792 C   0  0  0  0  0  0  0  0  0  0  0  0
    3.4387  -22.3574   21.4700 F   0  0  0  0  0  0  0  0  0  0  0  0
    3.3715  -20.1945   21.3306 F   0  0  0  0  0  0  0  0  0  0  0  0
   -2.6756  -20.9765   23.4929 C   0  0  0  0  0  0  0  0  0  0  0  0
   -3.1853  -22.3866   23.6775 C   0  0  0  0  0  0  0  0  0  0  0  0
   -3.7376  -22.6624   24.8681 C   0  0  0  0  0  0  0  0  0  0  0  0
   -3.8506  -21.6489   25.8019 N   0  0  0  0  0  0  0  0  0  0  0  0
   -4.2390  -21.7003   27.1123 C   0  0  0  0  0  0  0  0  0  0  0  0
   -4.1463  -20.4058   27.5654 C   0  0  0  0  0  0  0  0  0  0  0  0
   -3.7721  -19.5628   26.5534 N   0  0  0  0  0  0  0  0  0  0  0  0
   -3.5068  -20.3299   25.5141 C   0  0  0  0  0  0  0  0  0  0  0  0
   -2.9012  -19.9980   24.3280 N   0  0  0  0  0  0  0  0  0  0  0  0
   -1.4498  -19.0629   21.1405 H   0  0  0  0  0  0  0  0  0  0  0  0
   -0.0506  -18.5792   17.5939 H   0  0  0  0  0  0  0  0  0  0  0  0
    1.7202  -20.5323   18.2725 H   0  0  0  0  0  0  0  0  0  0  0  0
    1.0240  -22.3899   20.6704 H   0  0  0  0  0  0  0  0  0  0  0  0
    1.1445  -21.1873   21.9936 H   0  0  0  0  0  0  0  0  0  0  0  0
    3.2167  -21.3959   19.7439 H   0  0  0  0  0  0  0  0  0  0  0  0
   -3.0359  -23.1191   22.8948 H   0  0  0  0  0  0  0  0  0  0  0  0
   -4.0853  -23.6480   25.1438 H   0  0  0  0  0  0  0  0  0  0  0  0
   -4.4984  -22.6324   27.5837 H   0  0  0  0  0  0  0  0  0  0  0  0
   -4.3173  -20.0215   28.5638 H   0  0  0  0  0  0  0  0  0  0  0  0
  1  2  2  0
  2  3  1  0
  3  4  1  0
  4  5  2  0
  5  6  1  0
  6  7  2  0
  7  8  1  0
  8  9  1  0
  9 10  1  0
 10 11  1  0
 10 12  1  0
  2 13  1  0
 13 14  1  0
 14 15  2  0
 15 16  1  0
 16 17  1  0
 17 18  2  0
 18 19  1  0
 19 20  2  0
 20 21  1  0
  8  4  1  0
 21 13  2  0
 20 16  1  0
  3 22  1  0
  6 23  1  0
  7 24  1  0
  9 25  1  0
  9 26  1  0
 10 27  1  0
 14 28  1  0
 15 29  1  0
 17 30  1  0
 18 31  1  0
M  END
>  <Energy>  (309) 
251.73495615780777

>  <compound_id>  (309) 
8679

>  <target_id>  (309) 
1

>  <reference_id>  (309) 
114

>  <inspiration_ids>  (309) 
[114, 107]

>  <energy_score>  (309) 
175.10293708841482

>  <distance_score>  (309) 
15.489234673455949

>  <path>  (309) 
/opt/xchem-fragalysis-2/maxwin/BulkDock/SCRATCH/511022/C8679-P114/C8679-P114.minimised.mol

>  <scratch_subdir>  (309) 
/opt/xchem-fragalysis-2/maxwin/BulkDock/SCRATCH/511022/C8679-P114

>  <fragmenstein_runtime>  (309) 
17.24781060218811

>  <fragmenstein_outcome>  (309) 
too moved

>  <fragmenstein_mode>  (309) 
expansion

>  <fragmenstein_error>  (309) 


$$$$
C8679-P107
     RDKit          3D

 31 33  0  0  0  0  0  0  0  0999 V2000
   -6.0707  -13.3436   21.4565 O   0  0  0  0  0  0  0  0  0  0  0  0
   -5.9638  -12.8368   22.5386 C   0  0  0  0  0  0  0  0  0  0  0  0
   -5.2857  -11.6204   22.9524 N   0  0  0  0  0  0  0  0  0  0  0  0
   -4.4755  -10.7228   22.2305 C   0  0  0  0  0  0  0  0  0  0  0  0
   -3.8264   -9.7350   22.8435 N   0  0  0  0  0  0  0  0  0  0  0  0
   -3.0808   -9.0489   21.9094 C   0  0  0  0  0  0  0  0  0  0  0  0
   -3.1727   -9.6758   20.7005 C   0  0  0  0  0  0  0  0  0  0  0  0
   -4.0488  -10.7307   20.8905 N   0  0  0  0  0  0  0  0  0  0  0  0
   -4.3982  -11.7042   19.8730 C   0  0  0  0  0  0  0  0  0  0  0  0
   -3.6418  -11.6220   18.5585 C   0  0  0  0  0  0  0  0  0  0  0  0
   -4.0170  -12.6581   17.7619 F   0  0  0  0  0  0  0  0  0  0  0  0
   -3.9780  -10.4937   17.8801 F   0  0  0  0  0  0  0  0  0  0  0  0
   -6.6060  -13.6996   23.7248 C   0  0  0  0  0  0  0  0  0  0  0  0
   -7.3135  -14.9813   23.2903 C   0  0  0  0  0  0  0  0  0  0  0  0
   -7.8585  -15.7463   24.2509 C   0  0  0  0  0  0  0  0  0  0  0  0
   -7.7504  -15.3463   25.5704 N   0  0  0  0  0  0  0  0  0  0  0  0
   -8.2308  -15.9327   26.7154 C   0  0  0  0  0  0  0  0  0  0  0  0
   -7.8116  -15.1202   27.7378 C   0  0  0  0  0  0  0  0  0  0  0  0
   -7.1159  -14.0423   27.2432 N   0  0  0  0  0  0  0  0  0  0  0  0
   -7.0813  -14.1720   25.9281 C   0  0  0  0  0  0  0  0  0  0  0  0
   -6.5042  -13.3371   24.9797 N   0  0  0  0  0  0  0  0  0  0  0  0
   -5.3322  -11.5421   23.9668 H   0  0  0  0  0  0  0  0  0  0  0  0
   -2.5017   -8.1748   22.1768 H   0  0  0  0  0  0  0  0  0  0  0  0
   -2.7043   -9.4482   19.7519 H   0  0  0  0  0  0  0  0  0  0  0  0
   -5.4714  -11.5955   19.6873 H   0  0  0  0  0  0  0  0  0  0  0  0
   -4.1885  -12.6907   20.2919 H   0  0  0  0  0  0  0  0  0  0  0  0
   -2.5553  -11.6551   18.6810 H   0  0  0  0  0  0  0  0  0  0  0  0
   -7.3581  -15.2285   22.2369 H   0  0  0  0  0  0  0  0  0  0  0  0
   -8.3873  -16.6660   24.0418 H   0  0  0  0  0  0  0  0  0  0  0  0
   -8.8112  -16.8395   26.7112 H   0  0  0  0  0  0  0  0  0  0  0  0
   -7.9754  -15.2392   28.8015 H   0  0  0  0  0  0  0  0  0  0  0  0
  1  2  2  0
  2  3  1  0
  3  4  1  0
  4  5  2  0
  5  6  1  0
  6  7  2  0
  7  8  1  0
  8  9  1  0
  9 10  1  0
 10 11  1  0
 10 12  1  0
  2 13  1  0
 13 14  1  0
 14 15  2  0
 15 16  1  0
 16 17  1  0
 17 18  2  0
 18 19  1  0
 19 20  2  0
 20 21  1  0
  8  4  1  0
 21 13  2  0
 20 16  1  0
  3 22  1  0
  6 23  1  0
  7 24  1  0
  9 25  1  0
  9 26  1  0
 10 27  1  0
 14 28  1  0
 15 29  1  0
 17 30  1  0
 18 31  1  0
M  END
>  <Energy>  (310) 
41.643282311539558

>  <compound_id>  (310) 
8679

>  <target_id>  (310) 
1

>  <reference_id>  (310) 
107

>  <inspiration_ids>  (310) 
[114, 107]

>  <energy_score>  (310) 
-34.98873675784603

>  <distance_score>  (310) 
14.537065708302878

>  <path>  (310) 
/opt/xchem-fragalysis-2/maxwin/BulkDock/SCRATCH/511022/C8679-P107/C8679-P107.minimised.mol

>  <scratch_subdir>  (310) 
/opt/xchem-fragalysis-2/maxwin/BulkDock/SCRATCH/511022/C8679-P107

>  <fragmenstein_runtime>  (310) 
29.086961269378662

>  <fragmenstein_outcome>  (310) 
too moved

>  <fragmenstein_mode>  (310) 
expansion

>  <fragmenstein_error>  (310) 


$$$$
C8680-P114
     RDKit          3D

 28 30  0  0  0  0  0  0  0  0999 V2000
   -4.6939  -10.5946   23.7520 O   0  0  0  0  0  0  0  0  0  0  0  0
   -5.3352  -11.6401   22.6994 C   0  0  0  0  0  0  0  0  0  0  0  0
   -4.9375  -11.2828   21.7369 N   0  0  0  0  0  0  0  0  0  0  0  0
   -4.0314  -10.3233   21.1491 C   0  0  0  0  0  0  0  0  0  0  0  0
   -3.6961  -10.2041   19.8775 N   0  0  0  0  0  0  0  0  0  0  0  0
   -2.6075   -9.2884   19.8176 C   0  0  0  0  0  0  0  0  0  0  0  0
   -2.0436   -8.7358   18.5179 C   0  0  0  0  0  0  0  0  0  0  0  0
   -2.7898   -7.6647   18.1105 F   0  0  0  0  0  0  0  0  0  0  0  0
   -0.7707   -8.2920   18.5781 F   0  0  0  0  0  0  0  0  0  0  0  0
   -2.1376   -9.6277   17.4942 F   0  0  0  0  0  0  0  0  0  0  0  0
   -2.2672   -8.9560   21.1166 C   0  0  0  0  0  0  0  0  0  0  0  0
   -3.3077   -9.4075   21.8835 N   0  0  0  0  0  0  0  0  0  0  0  0
   -6.1531  -12.7993   23.3222 C   0  0  0  0  0  0  0  0  0  0  0  0
   -6.4607  -13.9940   22.4452 C   0  0  0  0  0  0  0  0  0  0  0  0
   -7.1470  -15.0064   23.0101 C   0  0  0  0  0  0  0  0  0  0  0  0
   -7.5295  -14.9194   24.3405 N   0  0  0  0  0  0  0  0  0  0  0  0
   -8.2590  -15.7892   25.1124 C   0  0  0  0  0  0  0  0  0  0  0  0
   -8.2962  -15.2227   26.3620 C   0  0  0  0  0  0  0  0  0  0  0  0
   -7.6520  -14.0084   26.3543 N   0  0  0  0  0  0  0  0  0  0  0  0
   -7.2039  -13.8169   25.1234 C   0  0  0  0  0  0  0  0  0  0  0  0
   -6.5152  -12.7467   24.5852 N   0  0  0  0  0  0  0  0  0  0  0  0
   -4.8598  -11.2617   20.7120 H   0  0  0  0  0  0  0  0  0  0  0  0
   -1.4724   -8.3591   21.5372 H   0  0  0  0  0  0  0  0  0  0  0  0
   -3.4695   -9.2567   22.8743 H   0  0  0  0  0  0  0  0  0  0  0  0
   -6.1299  -13.9994   21.4152 H   0  0  0  0  0  0  0  0  0  0  0  0
   -7.4249  -15.9028   22.4698 H   0  0  0  0  0  0  0  0  0  0  0  0
   -8.6747  -16.6939   24.7041 H   0  0  0  0  0  0  0  0  0  0  0  0
   -8.7624  -15.6032   27.2618 H   0  0  0  0  0  0  0  0  0  0  0  0
  1  2  2  0
  2  3  1  0
  3  4  1  0
  4  5  2  0
  5  6  1  0
  6  7  1  0
  7  8  1  0
  7  9  1  0
  7 10  1  0
  6 11  2  0
 11 12  1  0
  2 13  1  0
 13 14  1  0
 14 15  2  0
 15 16  1  0
 16 17  1  0
 17 18  2  0
 18 19  1  0
 19 20  2  0
 20 21  1  0
 12  4  1  0
 21 13  2  0
 20 16  1  0
  3 22  1  0
 11 23  1  0
 12 24  1  0
 14 25  1  0
 15 26  1  0
 17 27  1  0
 18 28  1  0
M  END
>  <Energy>  (311) 
311.29984508145958

>  <compound_id>  (311) 
8680

>  <target_id>  (311) 
1

>  <reference_id>  (311) 
114

>  <inspiration_ids>  (311) 
[114, 107]

>  <energy_score>  (311) 
182.4375259572024

>  <distance_score>  (311) 
14.665187367114447

>  <path>  (311) 
/opt/xchem-fragalysis-2/maxwin/BulkDock/SCRATCH/511022/C8680-P114/C8680-P114.minimised.mol

>  <scratch_subdir>  (311) 
/opt/xchem-fragalysis-2/maxwin/BulkDock/SCRATCH/511022/C8680-P114

>  <fragmenstein_runtime>  (311) 
22.312487602233887

>  <fragmenstein_outcome>  (311) 
too moved

>  <fragmenstein_mode>  (311) 
expansion

>  <fragmenstein_error>  (311) 


$$$$
C8680-P107
     RDKit          3D

 28 30  0  0  0  0  0  0  0  0999 V2000
   -1.1702  -16.1723   25.0002 O   0  0  0  0  0  0  0  0  0  0  0  0
   -1.0450  -16.0428   26.1863 C   0  0  0  0  0  0  0  0  0  0  0  0
   -0.0106  -15.3954   26.9599 N   0  0  0  0  0  0  0  0  0  0  0  0
    1.1839  -14.8141   26.5699 C   0  0  0  0  0  0  0  0  0  0  0  0
    2.1589  -14.3470   27.3308 N   0  0  0  0  0  0  0  0  0  0  0  0
    3.2026  -13.9078   26.4858 C   0  0  0  0  0  0  0  0  0  0  0  0
    4.5256  -13.4047   27.0400 C   0  0  0  0  0  0  0  0  0  0  0  0
    4.3601  -12.3601   27.8952 F   0  0  0  0  0  0  0  0  0  0  0  0
    5.4116  -13.0106   26.0950 F   0  0  0  0  0  0  0  0  0  0  0  0
    5.1559  -14.3826   27.7507 F   0  0  0  0  0  0  0  0  0  0  0  0
    2.7858  -14.0821   25.1812 C   0  0  0  0  0  0  0  0  0  0  0  0
    1.5325  -14.6412   25.2474 N   0  0  0  0  0  0  0  0  0  0  0  0
   -2.2104  -16.7076   27.0238 C   0  0  0  0  0  0  0  0  0  0  0  0
   -2.9751  -17.8088   26.2996 C   0  0  0  0  0  0  0  0  0  0  0  0
   -4.0776  -18.2818   26.9014 C   0  0  0  0  0  0  0  0  0  0  0  0
   -4.4254  -17.7854   28.1441 N   0  0  0  0  0  0  0  0  0  0  0  0
   -5.5239  -18.0448   28.9156 C   0  0  0  0  0  0  0  0  0  0  0  0
   -5.3088  -17.3701   30.0903 C   0  0  0  0  0  0  0  0  0  0  0  0
   -4.1617  -16.6150   30.0059 N   0  0  0  0  0  0  0  0  0  0  0  0
   -3.6374  -16.8490   28.8154 C   0  0  0  0  0  0  0  0  0  0  0  0
   -2.5173  -16.2880   28.2246 N   0  0  0  0  0  0  0  0  0  0  0  0
   -0.1887  -15.5520   27.9484 H   0  0  0  0  0  0  0  0  0  0  0  0
    3.2277  -13.8671   24.2267 H   0  0  0  0  0  0  0  0  0  0  0  0
    0.9159  -14.8388   24.4694 H   0  0  0  0  0  0  0  0  0  0  0  0
   -2.6349  -18.1354   25.3250 H   0  0  0  0  0  0  0  0  0  0  0  0
   -4.7169  -19.0350   26.4616 H   0  0  0  0  0  0  0  0  0  0  0  0
   -6.3277  -18.6805   28.5895 H   0  0  0  0  0  0  0  0  0  0  0  0
   -5.9252  -17.3689   30.9813 H   0  0  0  0  0  0  0  0  0  0  0  0
  1  2  2  0
  2  3  1  0
  3  4  1  0
  4  5  2  0
  5  6  1  0
  6  7  1  0
  7  8  1  0
  7  9  1  0
  7 10  1  0
  6 11  2  0
 11 12  1  0
  2 13  1  0
 13 14  1  0
 14 15  2  0
 15 16  1  0
 16 17  1  0
 17 18  2  0
 18 19  1  0
 19 20  2  0
 20 21  1  0
 12  4  1  0
 21 13  2  0
 20 16  1  0
  3 22  1  0
 11 23  1  0
 12 24  1  0
 14 25  1  0
 15 26  1  0
 17 27  1  0
 18 28  1  0
M  END
>  <Energy>  (312) 
95.871497894766691

>  <compound_id>  (312) 
8680

>  <target_id>  (312) 
1

>  <reference_id>  (312) 
107

>  <inspiration_ids>  (312) 
[114, 107]

>  <energy_score>  (312) 
-32.99082122948897

>  <distance_score>  (312) 
14.254151148774225

>  <path>  (312) 
/opt/xchem-fragalysis-2/maxwin/BulkDock/SCRATCH/511022/C8680-P107/C8680-P107.minimised.mol

>  <scratch_subdir>  (312) 
/opt/xchem-fragalysis-2/maxwin/BulkDock/SCRATCH/511022/C8680-P107

>  <fragmenstein_runtime>  (312) 
15.40903091430664

>  <fragmenstein_outcome>  (312) 
too moved

>  <fragmenstein_mode>  (312) 
expansion

>  <fragmenstein_error>  (312) 


$$$$
C8676-P114
     RDKit          3D

 37 39  0  0  0  0  0  0  0  0999 V2000
   -1.6547   -5.9288   23.0612 C   0  0  0  0  0  0  0  0  0  0  0  0
   -0.9010   -7.2262   22.8062 C   0  0  0  0  0  0  0  0  0  0  0  0
   -0.3301   -7.3204   21.4814 N   0  0  0  0  0  0  0  0  0  0  0  0
    0.4981   -6.3673   20.9308 C   0  0  0  0  0  0  0  0  0  0  0  0
    0.7106   -6.5775   19.6550 N   0  0  0  0  0  0  0  0  0  0  0  0
    0.0448   -7.7472   19.3869 C   0  0  0  0  0  0  0  0  0  0  0  0
   -0.5671   -8.2839   20.5238 C   0  0  0  0  0  0  0  0  0  0  0  0
   -1.5848   -9.7517   20.6167 C   0  0  0  0  0  0  0  0  0  0  0  0
   -1.4512  -11.4722   21.6427 N   0  0  0  0  0  0  0  0  0  0  0  0
   -1.1719  -10.4635   20.9081 C   0  0  0  0  0  0  0  0  0  0  0  0
   -0.1547  -12.3050   22.7222 C   0  0  0  0  0  0  0  0  0  0  0  0
    0.9721  -12.0039   22.9575 O   0  0  0  0  0  0  0  0  0  0  0  0
   -0.7265  -13.9827   23.9230 C   0  0  0  0  0  0  0  0  0  0  0  0
   -1.7943  -13.3695   25.4322 C   0  0  0  0  0  0  0  0  0  0  0  0
   -3.1474  -13.5149   25.6773 C   0  0  0  0  0  0  0  0  0  0  0  0
   -3.6721  -14.6968   25.3845 N   0  0  0  0  0  0  0  0  0  0  0  0
   -4.7960  -15.2960   25.8802 C   0  0  0  0  0  0  0  0  0  0  0  0
   -4.3652  -16.5741   26.0773 C   0  0  0  0  0  0  0  0  0  0  0  0
   -3.1030  -16.6990   25.5323 N   0  0  0  0  0  0  0  0  0  0  0  0
   -2.7778  -15.5802   24.8657 C   0  0  0  0  0  0  0  0  0  0  0  0
   -1.5544  -15.1779   23.9501 N   0  0  0  0  0  0  0  0  0  0  0  0
   -2.4431   -5.7793   22.3158 H   0  0  0  0  0  0  0  0  0  0  0  0
   -0.9882   -5.0613   23.0247 H   0  0  0  0  0  0  0  0  0  0  0  0
   -2.1196   -5.9519   24.0519 H   0  0  0  0  0  0  0  0  0  0  0  0
   -0.0819   -7.3475   23.5219 H   0  0  0  0  0  0  0  0  0  0  0  0
   -1.6047   -8.0517   22.9255 H   0  0  0  0  0  0  0  0  0  0  0  0
    0.8847   -5.5326   21.5006 H   0  0  0  0  0  0  0  0  0  0  0  0
    0.0438   -8.1599   18.3866 H   0  0  0  0  0  0  0  0  0  0  0  0
   -2.5225   -9.2359   21.1692 H   0  0  0  0  0  0  0  0  0  0  0  0
   -2.1621   -9.8265   19.5433 H   0  0  0  0  0  0  0  0  0  0  0  0
   -1.1608  -11.3865   20.1156 H   0  0  0  0  0  0  0  0  0  0  0  0
    0.0392  -10.4811   20.9942 H   0  0  0  0  0  0  0  0  0  0  0  0
   -0.7561  -10.0774   22.0607 H   0  0  0  0  0  0  0  0  0  0  0  0
   -1.6119  -12.3715   25.7000 H   0  0  0  0  0  0  0  0  0  0  0  0
   -3.7599  -12.8239   26.2462 H   0  0  0  0  0  0  0  0  0  0  0  0
   -5.6667  -14.7513   26.2132 H   0  0  0  0  0  0  0  0  0  0  0  0
   -4.8503  -17.3966   26.5858 H   0  0  0  0  0  0  0  0  0  0  0  0
  1  2  1  0
  2  3  1  0
  3  4  1  0
  4  5  2  0
  5  6  1  0
  6  7  2  0
  7  8  1  0
  8  9  1  0
  9 10  1  0
  9 11  1  0
 11 12  2  0
 11 13  1  0
 13 14  1  0
 14 15  2  0
 15 16  1  0
 16 17  1  0
 17 18  2  0
 18 19  1  0
 19 20  2  0
 20 21  1  0
  7  3  1  0
 21 13  2  0
 20 16  1  0
  1 22  1  0
  1 23  1  0
  1 24  1  0
  2 25  1  0
  2 26  1  0
  4 27  1  0
  6 28  1  0
  8 29  1  0
  8 30  1  0
 10 31  1  0
 10 32  1  0
 10 33  1  0
 14 34  1  0
 15 35  1  0
 17 36  1  0
 18 37  1  0
M  END
>  <Energy>  (313) 
1186.2283408856017

>  <compound_id>  (313) 
8676

>  <target_id>  (313) 
1

>  <reference_id>  (313) 
114

>  <inspiration_ids>  (313) 
[114, 107]

>  <energy_score>  (313) 
1104.780809515219

>  <distance_score>  (313) 
14.455674174128378

>  <path>  (313) 
/opt/xchem-fragalysis-2/maxwin/BulkDock/SCRATCH/511022/C8676-P114/C8676-P114.minimised.mol

>  <scratch_subdir>  (313) 
/opt/xchem-fragalysis-2/maxwin/BulkDock/SCRATCH/511022/C8676-P114

>  <fragmenstein_runtime>  (313) 
19.055028676986694

>  <fragmenstein_outcome>  (313) 
too moved

>  <fragmenstein_mode>  (313) 
expansion

>  <fragmenstein_error>  (313) 


$$$$
C8676-P107
     RDKit          3D

 37 39  0  0  0  0  0  0  0  0999 V2000
    0.1611   -6.2420   25.3975 C   0  0  0  0  0  0  0  0  0  0  0  0
   -0.6032   -5.6788   24.2128 C   0  0  0  0  0  0  0  0  0  0  0  0
   -0.5617   -6.5554   23.0583 N   0  0  0  0  0  0  0  0  0  0  0  0
    0.4072   -6.4869   22.0900 C   0  0  0  0  0  0  0  0  0  0  0  0
    0.1937   -7.3610   21.1400 N   0  0  0  0  0  0  0  0  0  0  0  0
   -0.9487   -8.0407   21.5128 C   0  0  0  0  0  0  0  0  0  0  0  0
   -1.4738   -7.5490   22.7046 C   0  0  0  0  0  0  0  0  0  0  0  0
   -2.9731   -7.8333   23.6069 C   0  0  0  0  0  0  0  0  0  0  0  0
   -3.8605   -9.5691   23.9637 N   0  0  0  0  0  0  0  0  0  0  0  0
   -3.4776   -8.4496   23.4062 C   0  0  0  0  0  0  0  0  0  0  0  0
   -4.3818  -10.0018   25.4336 C   0  0  0  0  0  0  0  0  0  0  0  0
   -4.4532   -9.4240   26.4361 O   0  0  0  0  0  0  0  0  0  0  0  0
   -5.0250  -11.4738   25.5208 C   0  0  0  0  0  0  0  0  0  0  0  0
   -6.2934  -11.7288   24.7405 C   0  0  0  0  0  0  0  0  0  0  0  0
   -7.0032  -12.8286   25.0610 C   0  0  0  0  0  0  0  0  0  0  0  0
   -6.5451  -13.6750   26.0585 N   0  0  0  0  0  0  0  0  0  0  0  0
   -7.1169  -14.8031   26.5997 C   0  0  0  0  0  0  0  0  0  0  0  0
   -6.2329  -15.2276   27.5608 C   0  0  0  0  0  0  0  0  0  0  0  0
   -5.1389  -14.3963   27.6084 N   0  0  0  0  0  0  0  0  0  0  0  0
   -5.3358  -13.4444   26.7086 C   0  0  0  0  0  0  0  0  0  0  0  0
   -4.5756  -12.3234   26.4238 N   0  0  0  0  0  0  0  0  0  0  0  0
    0.1322   -5.5394   26.2360 H   0  0  0  0  0  0  0  0  0  0  0  0
   -0.2705   -7.1891   25.7345 H   0  0  0  0  0  0  0  0  0  0  0  0
    1.2099   -6.4240   25.1407 H   0  0  0  0  0  0  0  0  0  0  0  0
   -1.6499   -5.4981   24.4729 H   0  0  0  0  0  0  0  0  0  0  0  0
   -0.1757   -4.7154   23.9115 H   0  0  0  0  0  0  0  0  0  0  0  0
    1.2323   -5.7881   22.1303 H   0  0  0  0  0  0  0  0  0  0  0  0
   -1.3424   -8.8260   20.8774 H   0  0  0  0  0  0  0  0  0  0  0  0
   -3.5234   -6.7208   23.7664 H   0  0  0  0  0  0  0  0  0  0  0  0
   -2.4078   -7.7455   24.6877 H   0  0  0  0  0  0  0  0  0  0  0  0
   -4.1051   -8.2362   22.2934 H   0  0  0  0  0  0  0  0  0  0  0  0
   -3.0934   -9.2531   22.5443 H   0  0  0  0  0  0  0  0  0  0  0  0
   -4.6952   -8.1603   23.6640 H   0  0  0  0  0  0  0  0  0  0  0  0
   -6.5794  -11.0175   23.9778 H   0  0  0  0  0  0  0  0  0  0  0  0
   -7.9351  -13.0851   24.5756 H   0  0  0  0  0  0  0  0  0  0  0  0
   -8.0733  -15.1777   26.2697 H   0  0  0  0  0  0  0  0  0  0  0  0
   -6.3145  -16.0811   28.2223 H   0  0  0  0  0  0  0  0  0  0  0  0
  1  2  1  0
  2  3  1  0
  3  4  1  0
  4  5  2  0
  5  6  1  0
  6  7  2  0
  7  8  1  0
  8  9  1  0
  9 10  1  0
  9 11  1  0
 11 12  2  0
 11 13  1  0
 13 14  1  0
 14 15  2  0
 15 16  1  0
 16 17  1  0
 17 18  2  0
 18 19  1  0
 19 20  2  0
 20 21  1  0
  7  3  1  0
 21 13  2  0
 20 16  1  0
  1 22  1  0
  1 23  1  0
  1 24  1  0
  2 25  1  0
  2 26  1  0
  4 27  1  0
  6 28  1  0
  8 29  1  0
  8 30  1  0
 10 31  1  0
 10 32  1  0
 10 33  1  0
 14 34  1  0
 15 35  1  0
 17 36  1  0
 18 37  1  0
M  END
>  <Energy>  (314) 
825.73365222987809

>  <compound_id>  (314) 
8676

>  <target_id>  (314) 
1

>  <reference_id>  (314) 
107

>  <inspiration_ids>  (314) 
[114, 107]

>  <energy_score>  (314) 
744.286120859512

>  <distance_score>  (314) 
14.272848800927088

>  <path>  (314) 
/opt/xchem-fragalysis-2/maxwin/BulkDock/SCRATCH/511022/C8676-P107/C8676-P107.minimised.mol

>  <scratch_subdir>  (314) 
/opt/xchem-fragalysis-2/maxwin/BulkDock/SCRATCH/511022/C8676-P107

>  <fragmenstein_runtime>  (314) 
21.877889394760132

>  <fragmenstein_outcome>  (314) 
too moved

>  <fragmenstein_mode>  (314) 
expansion

>  <fragmenstein_error>  (314) 


$$$$
C8681-P114
     RDKit          3D

 37 39  0  0  0  0  0  0  0  0999 V2000
   -0.2786   -8.1615   28.8004 C   0  0  0  0  0  0  0  0  0  0  0  0
   -0.7586   -7.6942   27.5223 N   0  0  0  0  0  0  0  0  0  0  0  0
   -0.0947   -6.8084   26.7097 C   0  0  0  0  0  0  0  0  0  0  0  0
   -0.9015   -6.6659   25.6126 C   0  0  0  0  0  0  0  0  0  0  0  0
   -2.0152   -7.4726   25.7272 N   0  0  0  0  0  0  0  0  0  0  0  0
   -1.9266   -8.1072   26.8932 C   0  0  0  0  0  0  0  0  0  0  0  0
   -2.7413   -9.3790   27.2849 C   0  0  0  0  0  0  0  0  0  0  0  0
   -3.9513   -9.3925   28.2323 C   0  0  0  0  0  0  0  0  0  0  0  0
   -4.4715  -10.7915   28.5243 N   0  0  0  0  0  0  0  0  0  0  0  0
   -4.4770  -11.9885   27.7151 C   0  0  0  0  0  0  0  0  0  0  0  0
   -4.0017  -12.2046   26.6375 O   0  0  0  0  0  0  0  0  0  0  0  0
   -5.1798  -13.2381   28.3984 C   0  0  0  0  0  0  0  0  0  0  0  0
   -5.2775  -14.4930   27.5421 C   0  0  0  0  0  0  0  0  0  0  0  0
   -5.7225  -15.6072   28.1446 C   0  0  0  0  0  0  0  0  0  0  0  0
   -6.0961  -15.5428   29.4741 N   0  0  0  0  0  0  0  0  0  0  0  0
   -6.4783  -16.5412   30.3271 C   0  0  0  0  0  0  0  0  0  0  0  0
   -6.7151  -15.9146   31.5262 C   0  0  0  0  0  0  0  0  0  0  0  0
   -6.5160  -14.5607   31.4177 N   0  0  0  0  0  0  0  0  0  0  0  0
   -6.0811  -14.3438   30.1903 C   0  0  0  0  0  0  0  0  0  0  0  0
   -5.6023  -13.1724   29.6356 N   0  0  0  0  0  0  0  0  0  0  0  0
   -5.0800   -8.5634   27.6324 C   0  0  0  0  0  0  0  0  0  0  0  0
   -6.0260   -8.9686   26.9763 O   0  0  0  0  0  0  0  0  0  0  0  0
   -4.9524   -7.2482   27.9065 O   0  0  0  0  0  0  0  0  0  0  0  0
    0.1422   -9.1607   28.6643 H   0  0  0  0  0  0  0  0  0  0  0  0
   -1.1149   -8.1867   29.5032 H   0  0  0  0  0  0  0  0  0  0  0  0
    0.4893   -7.4779   29.1714 H   0  0  0  0  0  0  0  0  0  0  0  0
    0.8561   -6.3686   26.9758 H   0  0  0  0  0  0  0  0  0  0  0  0
   -0.7450   -6.0353   24.7504 H   0  0  0  0  0  0  0  0  0  0  0  0
   -3.0970   -9.7880   26.3287 H   0  0  0  0  0  0  0  0  0  0  0  0
   -2.0263  -10.1013   27.7012 H   0  0  0  0  0  0  0  0  0  0  0  0
   -3.6916   -8.9745   29.2109 H   0  0  0  0  0  0  0  0  0  0  0  0
   -4.9049  -10.9971   29.4248 H   0  0  0  0  0  0  0  0  0  0  0  0
   -4.9531  -14.4527   26.5105 H   0  0  0  0  0  0  0  0  0  0  0  0
   -5.7881  -16.5671   27.6501 H   0  0  0  0  0  0  0  0  0  0  0  0
   -6.5122  -17.5813   30.0361 H   0  0  0  0  0  0  0  0  0  0  0  0
   -7.0080  -16.3653   32.4665 H   0  0  0  0  0  0  0  0  0  0  0  0
   -5.6784   -6.8279   27.3975 H   0  0  0  0  0  0  0  0  0  0  0  0
  1  2  1  0
  2  3  1  0
  3  4  2  0
  4  5  1  0
  5  6  2  0
  6  7  1  0
  7  8  1  0
  8  9  1  0
  9 10  1  0
 10 11  2  0
 10 12  1  0
 12 13  1  0
 13 14  2  0
 14 15  1  0
 15 16  1  0
 16 17  2  0
 17 18  1  0
 18 19  2  0
 19 20  1  0
  8 21  1  0
 21 22  2  0
 21 23  1  0
  6  2  1  0
 20 12  2  0
 19 15  1  0
  1 24  1  0
  1 25  1  0
  1 26  1  0
  3 27  1  0
  4 28  1  0
  7 29  1  0
  7 30  1  0
  8 31  1  0
  9 32  1  0
 13 33  1  0
 14 34  1  0
 16 35  1  0
 17 36  1  0
 23 37  1  0
M  END
>  <Energy>  (315) 
73.344472520290921

>  <compound_id>  (315) 
8681

>  <target_id>  (315) 
1

>  <reference_id>  (315) 
114

>  <inspiration_ids>  (315) 
[114, 107]

>  <energy_score>  (315) 
-22.864772349995064

>  <distance_score>  (315) 
13.857704207032688

>  <path>  (315) 
/opt/xchem-fragalysis-2/maxwin/BulkDock/SCRATCH/511022/C8681-P114/C8681-P114.minimised.mol

>  <scratch_subdir>  (315) 
/opt/xchem-fragalysis-2/maxwin/BulkDock/SCRATCH/511022/C8681-P114

>  <fragmenstein_runtime>  (315) 
29.5478994846344

>  <fragmenstein_outcome>  (315) 
too moved

>  <fragmenstein_mode>  (315) 
expansion

>  <fragmenstein_error>  (315) 


$$$$
C8681-P107
     RDKit          3D

 37 39  0  0  0  0  0  0  0  0999 V2000
   -1.0755   -9.1767   21.4652 C   0  0  0  0  0  0  0  0  0  0  0  0
   -1.2091   -9.0371   20.0348 N   0  0  0  0  0  0  0  0  0  0  0  0
   -0.1700   -8.3559   19.4083 C   0  0  0  0  0  0  0  0  0  0  0  0
   -0.4084   -8.5280   18.0803 C   0  0  0  0  0  0  0  0  0  0  0  0
   -1.6590   -9.0382   17.8981 N   0  0  0  0  0  0  0  0  0  0  0  0
   -1.8673   -9.7235   18.9853 C   0  0  0  0  0  0  0  0  0  0  0  0
   -2.1094  -11.2573   18.7326 C   0  0  0  0  0  0  0  0  0  0  0  0
   -1.9945  -12.1065   19.9560 C   0  0  0  0  0  0  0  0  0  0  0  0
   -2.6303  -13.3811   20.3398 N   0  0  0  0  0  0  0  0  0  0  0  0
   -2.2496  -15.0470   19.9328 C   0  0  0  0  0  0  0  0  0  0  0  0
   -1.3248  -15.4665   19.3195 O   0  0  0  0  0  0  0  0  0  0  0  0
   -3.4656  -16.4727   20.3316 C   0  0  0  0  0  0  0  0  0  0  0  0
   -5.0118  -16.3475   20.5700 C   0  0  0  0  0  0  0  0  0  0  0  0
   -5.6880  -17.3586   21.1347 C   0  0  0  0  0  0  0  0  0  0  0  0
   -5.0188  -18.5150   21.4311 N   0  0  0  0  0  0  0  0  0  0  0  0
   -5.4763  -19.6462   22.0498 C   0  0  0  0  0  0  0  0  0  0  0  0
   -4.3702  -20.4447   22.1726 C   0  0  0  0  0  0  0  0  0  0  0  0
   -3.2802  -19.8482   21.5790 N   0  0  0  0  0  0  0  0  0  0  0  0
   -3.6867  -18.6915   21.0761 C   0  0  0  0  0  0  0  0  0  0  0  0
   -2.9645  -17.7066   20.3992 N   0  0  0  0  0  0  0  0  0  0  0  0
   -3.4310  -11.3242   20.3531 C   0  0  0  0  0  0  0  0  0  0  0  0
   -4.5557  -11.6086   19.9464 O   0  0  0  0  0  0  0  0  0  0  0  0
   -3.3351  -10.3554   21.2782 O   0  0  0  0  0  0  0  0  0  0  0  0
   -0.8028  -10.1885   21.7212 H   0  0  0  0  0  0  0  0  0  0  0  0
   -1.9701   -8.8024   21.9606 H   0  0  0  0  0  0  0  0  0  0  0  0
   -0.2547   -8.5477   21.8283 H   0  0  0  0  0  0  0  0  0  0  0  0
    0.6589   -7.9861   19.9722 H   0  0  0  0  0  0  0  0  0  0  0  0
    0.2005   -8.2496   17.2314 H   0  0  0  0  0  0  0  0  0  0  0  0
   -3.0469  -11.3212   18.1713 H   0  0  0  0  0  0  0  0  0  0  0  0
   -1.3949  -11.6591   18.0386 H   0  0  0  0  0  0  0  0  0  0  0  0
   -1.3846  -11.7407   20.7469 H   0  0  0  0  0  0  0  0  0  0  0  0
   -3.4974  -13.3330   20.7820 H   0  0  0  0  0  0  0  0  0  0  0  0
   -5.6048  -15.5096   20.2461 H   0  0  0  0  0  0  0  0  0  0  0  0
   -6.7524  -17.3303   21.3313 H   0  0  0  0  0  0  0  0  0  0  0  0
   -6.5086  -19.7737   22.3369 H   0  0  0  0  0  0  0  0  0  0  0  0
   -4.2933  -21.4248   22.6259 H   0  0  0  0  0  0  0  0  0  0  0  0
   -4.2806  -10.2477   21.5423 H   0  0  0  0  0  0  0  0  0  0  0  0
  1  2  1  0
  2  3  1  0
  3  4  2  0
  4  5  1  0
  5  6  2  0
  6  7  1  0
  7  8  1  0
  8  9  1  0
  9 10  1  0
 10 11  2  0
 10 12  1  0
 12 13  1  0
 13 14  2  0
 14 15  1  0
 15 16  1  0
 16 17  2  0
 17 18  1  0
 18 19  2  0
 19 20  1  0
  8 21  1  0
 21 22  2  0
 21 23  1  0
  6  2  1  0
 20 12  2  0
 19 15  1  0
  1 24  1  0
  1 25  1  0
  1 26  1  0
  3 27  1  0
  4 28  1  0
  7 29  1  0
  7 30  1  0
  8 31  1  0
  9 32  1  0
 13 33  1  0
 14 34  1  0
 16 35  1  0
 17 36  1  0
 23 37  1  0
M  END
>  <Energy>  (316) 
267.52595076044656

>  <compound_id>  (316) 
8681

>  <target_id>  (316) 
1

>  <reference_id>  (316) 
107

>  <inspiration_ids>  (316) 
[114, 107]

>  <energy_score>  (316) 
171.3167058901654

>  <distance_score>  (316) 
14.213032054863682

>  <path>  (316) 
/opt/xchem-fragalysis-2/maxwin/BulkDock/SCRATCH/511022/C8681-P107/C8681-P107.minimised.mol

>  <scratch_subdir>  (316) 
/opt/xchem-fragalysis-2/maxwin/BulkDock/SCRATCH/511022/C8681-P107

>  <fragmenstein_runtime>  (316) 
33.95467138290405

>  <fragmenstein_outcome>  (316) 
too moved

>  <fragmenstein_mode>  (316) 
expansion

>  <fragmenstein_error>  (316) 


$$$$
C8682-P114
     RDKit          3D

 37 39  0  0  0  0  0  0  0  0999 V2000
    3.5275  -12.3176   22.5695 C   0  0  0  0  0  0  0  0  0  0  0  0
    3.0855  -13.2256   23.6725 C   0  0  0  0  0  0  0  0  0  0  0  0
    1.8060  -12.6049   24.1350 C   0  0  0  0  0  0  0  0  0  0  0  0
    1.1808  -13.6137   25.5536 N   0  0  0  0  0  0  0  0  0  0  0  0
    1.0804  -15.0637   25.7296 C   0  0  0  0  0  0  0  0  0  0  0  0
    1.4616  -15.9665   25.0313 O   0  0  0  0  0  0  0  0  0  0  0  0
    0.2358  -15.6030   26.9710 C   0  0  0  0  0  0  0  0  0  0  0  0
    0.6346  -16.9566   27.5263 C   0  0  0  0  0  0  0  0  0  0  0  0
   -0.3031  -17.6463   28.2026 C   0  0  0  0  0  0  0  0  0  0  0  0
   -1.5510  -17.0809   28.4104 N   0  0  0  0  0  0  0  0  0  0  0  0
   -2.6625  -17.5945   29.0355 C   0  0  0  0  0  0  0  0  0  0  0  0
   -3.6100  -16.6044   28.9518 C   0  0  0  0  0  0  0  0  0  0  0  0
   -3.1069  -15.5055   28.2898 N   0  0  0  0  0  0  0  0  0  0  0  0
   -1.8544  -15.7934   27.9624 C   0  0  0  0  0  0  0  0  0  0  0  0
   -0.9366  -15.0516   27.2290 N   0  0  0  0  0  0  0  0  0  0  0  0
    0.6967  -11.4875   22.7505 C   0  0  0  0  0  0  0  0  0  0  0  0
    0.9639  -10.5416   21.6613 N   0  0  0  0  0  0  0  0  0  0  0  0
    0.1949   -9.3567   21.6376 C   0  0  0  0  0  0  0  0  0  0  0  0
    0.7581   -8.0706   21.7918 C   0  0  0  0  0  0  0  0  0  0  0  0
   -1.0599   -9.7231   21.6808 C   0  0  0  0  0  0  0  0  0  0  0  0
   -0.7396  -11.0115   21.9439 N   0  0  0  0  0  0  0  0  0  0  0  0
    2.9295  -11.5195   22.8605 H   0  0  0  0  0  0  0  0  0  0  0  0
    4.3227  -11.5793   22.4386 H   0  0  0  0  0  0  0  0  0  0  0  0
    3.5110  -12.8123   21.5997 H   0  0  0  0  0  0  0  0  0  0  0  0
    3.6562  -13.5121   24.5395 H   0  0  0  0  0  0  0  0  0  0  0  0
    2.9737  -14.2590   23.3022 H   0  0  0  0  0  0  0  0  0  0  0  0
    1.4336  -13.6852   23.9793 H   0  0  0  0  0  0  0  0  0  0  0  0
    0.6768  -13.1552   26.2965 H   0  0  0  0  0  0  0  0  0  0  0  0
    1.6171  -17.3427   27.2882 H   0  0  0  0  0  0  0  0  0  0  0  0
   -0.1344  -18.6417   28.5929 H   0  0  0  0  0  0  0  0  0  0  0  0
   -2.6792  -18.5826   29.4718 H   0  0  0  0  0  0  0  0  0  0  0  0
   -4.6243  -16.6183   29.3304 H   0  0  0  0  0  0  0  0  0  0  0  0
    1.7501   -8.2984   22.1206 H   0  0  0  0  0  0  0  0  0  0  0  0
    0.7478   -7.5568   20.8542 H   0  0  0  0  0  0  0  0  0  0  0  0
    0.3096   -7.5345   22.6181 H   0  0  0  0  0  0  0  0  0  0  0  0
   -2.0413   -9.2909   21.5744 H   0  0  0  0  0  0  0  0  0  0  0  0
   -1.4221  -11.7059   21.7827 H   0  0  0  0  0  0  0  0  0  0  0  0
  1  2  1  0
  2  3  1  0
  3  4  1  0
  4  5  1  0
  5  6  2  0
  5  7  1  0
  7  8  1  0
  8  9  2  0
  9 10  1  0
 10 11  1  0
 11 12  2  0
 12 13  1  0
 13 14  2  0
 14 15  1  0
  3 16  1  0
 16 17  2  0
 17 18  1  0
 18 19  1  0
 18 20  2  0
 20 21  1  0
 15  7  2  0
 21 16  1  0
 14 10  1  0
  1 22  1  0
  1 23  1  0
  1 24  1  0
  2 25  1  0
  2 26  1  0
  3 27  1  0
  4 28  1  0
  8 29  1  0
  9 30  1  0
 11 31  1  0
 12 32  1  0
 19 33  1  0
 19 34  1  0
 19 35  1  0
 20 36  1  0
 21 37  1  0
M  END
>  <Energy>  (317) 
477.34503381646442

>  <compound_id>  (317) 
8682

>  <target_id>  (317) 
1

>  <reference_id>  (317) 
114

>  <inspiration_ids>  (317) 
[114, 107]

>  <energy_score>  (317) 
408.0242582579533

>  <distance_score>  (317) 
14.285444486363396

>  <path>  (317) 
/opt/xchem-fragalysis-2/maxwin/BulkDock/SCRATCH/511022/C8682-P114/C8682-P114.minimised.mol

>  <scratch_subdir>  (317) 
/opt/xchem-fragalysis-2/maxwin/BulkDock/SCRATCH/511022/C8682-P114

>  <fragmenstein_runtime>  (317) 
23.18061375617981

>  <fragmenstein_outcome>  (317) 
too moved

>  <fragmenstein_mode>  (317) 
expansion

>  <fragmenstein_error>  (317) 


$$$$
C8682-P107
     RDKit          3D

 37 39  0  0  0  0  0  0  0  0999 V2000
    5.1396   -9.4078   31.1229 C   0  0  0  0  0  0  0  0  0  0  0  0
    4.3339  -10.4861   30.4078 C   0  0  0  0  0  0  0  0  0  0  0  0
    3.2760   -9.9290   29.4246 C   0  0  0  0  0  0  0  0  0  0  0  0
    2.2591  -11.0416   29.1811 N   0  0  0  0  0  0  0  0  0  0  0  0
    0.8970  -10.9954   28.6682 C   0  0  0  0  0  0  0  0  0  0  0  0
    0.2583  -10.0795   28.2299 O   0  0  0  0  0  0  0  0  0  0  0  0
    0.0463  -12.3813   28.8055 C   0  0  0  0  0  0  0  0  0  0  0  0
    0.0982  -13.3951   27.6902 C   0  0  0  0  0  0  0  0  0  0  0  0
   -0.7426  -14.4478   27.7726 C   0  0  0  0  0  0  0  0  0  0  0  0
   -1.6027  -14.5653   28.8555 N   0  0  0  0  0  0  0  0  0  0  0  0
   -2.5484  -15.5210   29.1491 C   0  0  0  0  0  0  0  0  0  0  0  0
   -3.1125  -15.1175   30.3350 C   0  0  0  0  0  0  0  0  0  0  0  0
   -2.5335  -13.9465   30.7698 N   0  0  0  0  0  0  0  0  0  0  0  0
   -1.6114  -13.6169   29.8767 C   0  0  0  0  0  0  0  0  0  0  0  0
   -0.7606  -12.5206   29.8406 N   0  0  0  0  0  0  0  0  0  0  0  0
    4.0097   -9.1102   28.2937 C   0  0  0  0  0  0  0  0  0  0  0  0
    5.1295   -9.3867   27.6176 N   0  0  0  0  0  0  0  0  0  0  0  0
    5.5565   -8.2135   26.9733 C   0  0  0  0  0  0  0  0  0  0  0  0
    6.7702   -8.1372   26.0977 C   0  0  0  0  0  0  0  0  0  0  0  0
    4.6943   -7.1944   27.2962 C   0  0  0  0  0  0  0  0  0  0  0  0
    3.7490   -7.7551   28.1190 N   0  0  0  0  0  0  0  0  0  0  0  0
    5.8012   -9.8664   31.8649 H   0  0  0  0  0  0  0  0  0  0  0  0
    4.4800   -8.7081   31.6459 H   0  0  0  0  0  0  0  0  0  0  0  0
    5.7666   -8.8403   30.4293 H   0  0  0  0  0  0  0  0  0  0  0  0
    3.8331  -11.0881   31.1774 H   0  0  0  0  0  0  0  0  0  0  0  0
    5.0161  -11.1651   29.8810 H   0  0  0  0  0  0  0  0  0  0  0  0
    2.6757   -9.1860   29.9689 H   0  0  0  0  0  0  0  0  0  0  0  0
    2.4440  -11.9701   29.5466 H   0  0  0  0  0  0  0  0  0  0  0  0
    0.7705  -13.2345   26.8584 H   0  0  0  0  0  0  0  0  0  0  0  0
   -0.7897  -15.2153   27.0099 H   0  0  0  0  0  0  0  0  0  0  0  0
   -2.7284  -16.3712   28.5082 H   0  0  0  0  0  0  0  0  0  0  0  0
   -3.8984  -15.6001   30.9024 H   0  0  0  0  0  0  0  0  0  0  0  0
    7.0221   -9.1255   25.7035 H   0  0  0  0  0  0  0  0  0  0  0  0
    7.6224   -7.7695   26.6772 H   0  0  0  0  0  0  0  0  0  0  0  0
    6.5984   -7.4559   25.2594 H   0  0  0  0  0  0  0  0  0  0  0  0
    4.6764   -6.1486   27.0262 H   0  0  0  0  0  0  0  0  0  0  0  0
    3.0166   -7.2529   28.5992 H   0  0  0  0  0  0  0  0  0  0  0  0
  1  2  1  0
  2  3  1  0
  3  4  1  0
  4  5  1  0
  5  6  2  0
  5  7  1  0
  7  8  1  0
  8  9  2  0
  9 10  1  0
 10 11  1  0
 11 12  2  0
 12 13  1  0
 13 14  2  0
 14 15  1  0
  3 16  1  0
 16 17  2  0
 17 18  1  0
 18 19  1  0
 18 20  2  0
 20 21  1  0
 15  7  2  0
 21 16  1  0
 14 10  1  0
  1 22  1  0
  1 23  1  0
  1 24  1  0
  2 25  1  0
  2 26  1  0
  3 27  1  0
  4 28  1  0
  8 29  1  0
  9 30  1  0
 11 31  1  0
 12 32  1  0
 19 33  1  0
 19 34  1  0
 19 35  1  0
 20 36  1  0
 21 37  1  0
M  END
>  <Energy>  (318) 
78.455562468196774

>  <compound_id>  (318) 
8682

>  <target_id>  (318) 
1

>  <reference_id>  (318) 
107

>  <inspiration_ids>  (318) 
[114, 107]

>  <energy_score>  (318) 
9.134786909691229

>  <distance_score>  (318) 
14.984485365681023

>  <path>  (318) 
/opt/xchem-fragalysis-2/maxwin/BulkDock/SCRATCH/511022/C8682-P107/C8682-P107.minimised.mol

>  <scratch_subdir>  (318) 
/opt/xchem-fragalysis-2/maxwin/BulkDock/SCRATCH/511022/C8682-P107

>  <fragmenstein_runtime>  (318) 
33.444281339645386

>  <fragmenstein_outcome>  (318) 
too moved

>  <fragmenstein_mode>  (318) 
expansion

>  <fragmenstein_error>  (318) 


$$$$
C8683-P114
     RDKit          3D

 29 31  0  0  0  0  0  0  0  0999 V2000
   -9.0239  -13.2748   25.1955 F   0  0  0  0  0  0  0  0  0  0  0  0
  -10.1574  -13.8234   24.6814 C   0  0  0  0  0  0  0  0  0  0  0  0
  -11.1493  -12.9177   24.8852 F   0  0  0  0  0  0  0  0  0  0  0  0
  -10.0128  -14.1067   23.2625 N   0  0  0  0  0  0  0  0  0  0  0  0
   -8.8947  -13.8278   22.4973 C   0  0  0  0  0  0  0  0  0  0  0  0
   -9.2128  -14.2659   21.2396 C   0  0  0  0  0  0  0  0  0  0  0  0
  -10.5008  -14.7873   21.2240 N   0  0  0  0  0  0  0  0  0  0  0  0
  -11.0036  -14.6897   22.4567 C   0  0  0  0  0  0  0  0  0  0  0  0
  -12.5511  -14.8973   22.9186 C   0  0  0  0  0  0  0  0  0  0  0  0
  -13.3650  -16.2075   23.0011 N   0  0  0  0  0  0  0  0  0  0  0  0
  -13.2301  -17.1862   24.0018 C   0  0  0  0  0  0  0  0  0  0  0  0
  -13.8205  -18.8888   23.7720 C   0  0  0  0  0  0  0  0  0  0  0  0
  -13.0662  -20.0666   24.1561 C   0  0  0  0  0  0  0  0  0  0  0  0
  -11.7670  -19.8575   25.3274 N   0  0  0  0  0  0  0  0  0  0  0  0
  -12.0717  -20.4546   27.2308 C   0  0  0  0  0  0  0  0  0  0  0  0
  -12.0992  -18.7352   28.3198 C   0  0  0  0  0  0  0  0  0  0  0  0
  -11.1886  -17.4018   27.2613 N   0  0  0  0  0  0  0  0  0  0  0  0
  -11.3663  -17.7493   25.5389 C   0  0  0  0  0  0  0  0  0  0  0  0
  -12.1515  -16.8258   24.7540 N   0  0  0  0  0  0  0  0  0  0  0  0
  -10.3794  -14.7504   25.2142 H   0  0  0  0  0  0  0  0  0  0  0  0
   -8.0109  -13.3645   22.9145 H   0  0  0  0  0  0  0  0  0  0  0  0
   -8.6096  -14.2405   20.3410 H   0  0  0  0  0  0  0  0  0  0  0  0
  -12.6757  -14.3971   23.8849 H   0  0  0  0  0  0  0  0  0  0  0  0
  -13.1080  -14.2756   22.2043 H   0  0  0  0  0  0  0  0  0  0  0  0
  -13.7041  -16.5206   22.0957 H   0  0  0  0  0  0  0  0  0  0  0  0
  -14.6781  -18.9330   23.1101 H   0  0  0  0  0  0  0  0  0  0  0  0
  -13.3181  -21.1014   23.9693 H   0  0  0  0  0  0  0  0  0  0  0  0
  -11.4345  -21.3516   27.3290 H   0  0  0  0  0  0  0  0  0  0  0  0
  -12.5557  -18.2565   29.1317 H   0  0  0  0  0  0  0  0  0  0  0  0
  1  2  1  0
  2  3  1  0
  2  4  1  0
  4  5  1  0
  5  6  2  0
  6  7  1  0
  7  8  2  0
  8  9  1  0
  9 10  1  0
 10 11  1  0
 11 12  1  0
 12 13  2  0
 13 14  1  0
 14 15  1  0
 15 16  2  0
 16 17  1  0
 17 18  2  0
 18 19  1  0
  8  4  1  0
 19 11  2  0
 18 14  1  0
  2 20  1  0
  5 21  1  0
  6 22  1  0
  9 23  1  0
  9 24  1  0
 10 25  1  0
 12 26  1  0
 13 27  1  0
 15 28  1  0
 16 29  1  0
M  END
>  <Energy>  (319) 
792.73715992652762

>  <compound_id>  (319) 
8683

>  <target_id>  (319) 
1

>  <reference_id>  (319) 
114

>  <inspiration_ids>  (319) 
[114, 107]

>  <energy_score>  (319) 
751.1676225103354

>  <distance_score>  (319) 
16.720465418105835

>  <path>  (319) 
/opt/xchem-fragalysis-2/maxwin/BulkDock/SCRATCH/511022/C8683-P114/C8683-P114.minimised.mol

>  <scratch_subdir>  (319) 
/opt/xchem-fragalysis-2/maxwin/BulkDock/SCRATCH/511022/C8683-P114

>  <fragmenstein_runtime>  (319) 
11.87590217590332

>  <fragmenstein_outcome>  (319) 
too moved

>  <fragmenstein_mode>  (319) 
expansion

>  <fragmenstein_error>  (319) 


$$$$
C8683-P107
     RDKit          3D

 29 31  0  0  0  0  0  0  0  0999 V2000
    5.8871   -5.8438   15.8970 F   0  0  0  0  0  0  0  0  0  0  0  0
    4.7362   -5.3240   16.3991 C   0  0  0  0  0  0  0  0  0  0  0  0
    3.8253   -5.9534   15.6050 F   0  0  0  0  0  0  0  0  0  0  0  0
    4.8338   -5.5191   17.9534 N   0  0  0  0  0  0  0  0  0  0  0  0
    6.0993   -5.8608   18.3068 C   0  0  0  0  0  0  0  0  0  0  0  0
    6.3844   -4.9905   19.3170 C   0  0  0  0  0  0  0  0  0  0  0  0
    5.2317   -4.0529   19.7786 N   0  0  0  0  0  0  0  0  0  0  0  0
    4.1465   -4.5678   19.2606 C   0  0  0  0  0  0  0  0  0  0  0  0
    2.5699   -4.7980   20.3020 C   0  0  0  0  0  0  0  0  0  0  0  0
    1.6335   -6.2857   20.6447 N   0  0  0  0  0  0  0  0  0  0  0  0
    0.7529   -7.3015   21.6875 C   0  0  0  0  0  0  0  0  0  0  0  0
    0.0637   -8.4950   20.9599 C   0  0  0  0  0  0  0  0  0  0  0  0
   -1.0735   -9.0593   21.4066 C   0  0  0  0  0  0  0  0  0  0  0  0
   -1.5789   -8.5913   22.5916 N   0  0  0  0  0  0  0  0  0  0  0  0
   -2.8421   -8.7148   23.1622 C   0  0  0  0  0  0  0  0  0  0  0  0
   -2.7669   -8.0429   24.3607 C   0  0  0  0  0  0  0  0  0  0  0  0
   -1.4952   -7.5051   24.5361 N   0  0  0  0  0  0  0  0  0  0  0  0
   -0.7603   -7.8073   23.4513 C   0  0  0  0  0  0  0  0  0  0  0  0
    0.4774   -7.2589   23.0014 N   0  0  0  0  0  0  0  0  0  0  0  0
    4.6110   -4.2639   16.1808 H   0  0  0  0  0  0  0  0  0  0  0  0
    6.7375   -6.4069   17.6530 H   0  0  0  0  0  0  0  0  0  0  0  0
    7.2862   -4.9455   19.9163 H   0  0  0  0  0  0  0  0  0  0  0  0
    1.8942   -4.0932   19.8032 H   0  0  0  0  0  0  0  0  0  0  0  0
    2.7253   -4.2457   21.2280 H   0  0  0  0  0  0  0  0  0  0  0  0
    1.7679   -6.7978   19.7997 H   0  0  0  0  0  0  0  0  0  0  0  0
    0.4398   -8.6220   19.9636 H   0  0  0  0  0  0  0  0  0  0  0  0
   -1.6572   -9.7537   20.8184 H   0  0  0  0  0  0  0  0  0  0  0  0
   -3.6531   -9.2146   22.6524 H   0  0  0  0  0  0  0  0  0  0  0  0
   -3.5413   -7.8898   25.1015 H   0  0  0  0  0  0  0  0  0  0  0  0
  1  2  1  0
  2  3  1  0
  2  4  1  0
  4  5  1  0
  5  6  2  0
  6  7  1  0
  7  8  2  0
  8  9  1  0
  9 10  1  0
 10 11  1  0
 11 12  1  0
 12 13  2  0
 13 14  1  0
 14 15  1  0
 15 16  2  0
 16 17  1  0
 17 18  2  0
 18 19  1  0
  8  4  1  0
 19 11  2  0
 18 14  1  0
  2 20  1  0
  5 21  1  0
  6 22  1  0
  9 23  1  0
  9 24  1  0
 10 25  1  0
 12 26  1  0
 13 27  1  0
 15 28  1  0
 16 29  1  0
M  END
>  <Energy>  (320) 
273.29879178575135

>  <compound_id>  (320) 
8683

>  <target_id>  (320) 
1

>  <reference_id>  (320) 
107

>  <inspiration_ids>  (320) 
[114, 107]

>  <energy_score>  (320) 
231.72925436956263

>  <distance_score>  (320) 
17.384743578930404

>  <path>  (320) 
/opt/xchem-fragalysis-2/maxwin/BulkDock/SCRATCH/511022/C8683-P107/C8683-P107.minimised.mol

>  <scratch_subdir>  (320) 
/opt/xchem-fragalysis-2/maxwin/BulkDock/SCRATCH/511022/C8683-P107

>  <fragmenstein_runtime>  (320) 
9.430590391159058

>  <fragmenstein_outcome>  (320) 
too moved

>  <fragmenstein_mode>  (320) 
expansion

>  <fragmenstein_error>  (320) 


$$$$
C8682-P114
     RDKit          3D

 37 39  0  0  0  0  0  0  0  0999 V2000
    3.5275  -12.3176   22.5695 C   0  0  0  0  0  0  0  0  0  0  0  0
    3.0855  -13.2256   23.6725 C   0  0  0  0  0  0  0  0  0  0  0  0
    1.8060  -12.6049   24.1350 C   0  0  0  0  0  0  0  0  0  0  0  0
    1.1808  -13.6137   25.5536 N   0  0  0  0  0  0  0  0  0  0  0  0
    1.0804  -15.0637   25.7296 C   0  0  0  0  0  0  0  0  0  0  0  0
    1.4616  -15.9665   25.0313 O   0  0  0  0  0  0  0  0  0  0  0  0
    0.2358  -15.6030   26.9710 C   0  0  0  0  0  0  0  0  0  0  0  0
    0.6346  -16.9566   27.5263 C   0  0  0  0  0  0  0  0  0  0  0  0
   -0.3031  -17.6463   28.2026 C   0  0  0  0  0  0  0  0  0  0  0  0
   -1.5510  -17.0809   28.4104 N   0  0  0  0  0  0  0  0  0  0  0  0
   -2.6625  -17.5945   29.0355 C   0  0  0  0  0  0  0  0  0  0  0  0
   -3.6100  -16.6044   28.9518 C   0  0  0  0  0  0  0  0  0  0  0  0
   -3.1069  -15.5055   28.2898 N   0  0  0  0  0  0  0  0  0  0  0  0
   -1.8544  -15.7934   27.9624 C   0  0  0  0  0  0  0  0  0  0  0  0
   -0.9366  -15.0516   27.2290 N   0  0  0  0  0  0  0  0  0  0  0  0
    0.6967  -11.4875   22.7505 C   0  0  0  0  0  0  0  0  0  0  0  0
    0.9639  -10.5416   21.6613 N   0  0  0  0  0  0  0  0  0  0  0  0
    0.1949   -9.3567   21.6376 C   0  0  0  0  0  0  0  0  0  0  0  0
    0.7581   -8.0706   21.7918 C   0  0  0  0  0  0  0  0  0  0  0  0
   -1.0599   -9.7231   21.6808 C   0  0  0  0  0  0  0  0  0  0  0  0
   -0.7396  -11.0115   21.9439 N   0  0  0  0  0  0  0  0  0  0  0  0
    2.9295  -11.5195   22.8605 H   0  0  0  0  0  0  0  0  0  0  0  0
    4.3227  -11.5793   22.4386 H   0  0  0  0  0  0  0  0  0  0  0  0
    3.5110  -12.8123   21.5997 H   0  0  0  0  0  0  0  0  0  0  0  0
    3.6562  -13.5121   24.5395 H   0  0  0  0  0  0  0  0  0  0  0  0
    2.9737  -14.2590   23.3022 H   0  0  0  0  0  0  0  0  0  0  0  0
    1.4336  -13.6852   23.9793 H   0  0  0  0  0  0  0  0  0  0  0  0
    0.6768  -13.1552   26.2965 H   0  0  0  0  0  0  0  0  0  0  0  0
    1.6171  -17.3427   27.2882 H   0  0  0  0  0  0  0  0  0  0  0  0
   -0.1344  -18.6417   28.5929 H   0  0  0  0  0  0  0  0  0  0  0  0
   -2.6792  -18.5826   29.4718 H   0  0  0  0  0  0  0  0  0  0  0  0
   -4.6243  -16.6183   29.3304 H   0  0  0  0  0  0  0  0  0  0  0  0
    1.7501   -8.2984   22.1206 H   0  0  0  0  0  0  0  0  0  0  0  0
    0.7478   -7.5568   20.8542 H   0  0  0  0  0  0  0  0  0  0  0  0
    0.3096   -7.5345   22.6181 H   0  0  0  0  0  0  0  0  0  0  0  0
   -2.0413   -9.2909   21.5744 H   0  0  0  0  0  0  0  0  0  0  0  0
   -1.4221  -11.7059   21.7827 H   0  0  0  0  0  0  0  0  0  0  0  0
  1  2  1  0
  2  3  1  0
  3  4  1  0
  4  5  1  0
  5  6  2  0
  5  7  1  0
  7  8  1  0
  8  9  2  0
  9 10  1  0
 10 11  1  0
 11 12  2  0
 12 13  1  0
 13 14  2  0
 14 15  1  0
  3 16  1  0
 16 17  2  0
 17 18  1  0
 18 19  1  0
 18 20  2  0
 20 21  1  0
 15  7  2  0
 21 16  1  0
 14 10  1  0
  1 22  1  0
  1 23  1  0
  1 24  1  0
  2 25  1  0
  2 26  1  0
  3 27  1  0
  4 28  1  0
  8 29  1  0
  9 30  1  0
 11 31  1  0
 12 32  1  0
 19 33  1  0
 19 34  1  0
 19 35  1  0
 20 36  1  0
 21 37  1  0
M  END
>  <Energy>  (321) 
477.34503381646442

>  <compound_id>  (321) 
8682

>  <target_id>  (321) 
1

>  <reference_id>  (321) 
114

>  <inspiration_ids>  (321) 
[114, 107]

>  <energy_score>  (321) 
408.0242582579533

>  <distance_score>  (321) 
14.285444486363396

>  <path>  (321) 
/opt/xchem-fragalysis-2/maxwin/BulkDock/SCRATCH/511022/C8682-P114/C8682-P114.minimised.mol

>  <scratch_subdir>  (321) 
/opt/xchem-fragalysis-2/maxwin/BulkDock/SCRATCH/511022/C8682-P114

>  <fragmenstein_runtime>  (321) 
22.11959457397461

>  <fragmenstein_outcome>  (321) 
too moved

>  <fragmenstein_mode>  (321) 
expansion

>  <fragmenstein_error>  (321) 


$$$$
C8682-P107
     RDKit          3D

 37 39  0  0  0  0  0  0  0  0999 V2000
    5.1396   -9.4078   31.1229 C   0  0  0  0  0  0  0  0  0  0  0  0
    4.3339  -10.4861   30.4078 C   0  0  0  0  0  0  0  0  0  0  0  0
    3.2760   -9.9290   29.4246 C   0  0  0  0  0  0  0  0  0  0  0  0
    2.2591  -11.0416   29.1811 N   0  0  0  0  0  0  0  0  0  0  0  0
    0.8970  -10.9954   28.6682 C   0  0  0  0  0  0  0  0  0  0  0  0
    0.2583  -10.0795   28.2299 O   0  0  0  0  0  0  0  0  0  0  0  0
    0.0463  -12.3813   28.8055 C   0  0  0  0  0  0  0  0  0  0  0  0
    0.0982  -13.3951   27.6902 C   0  0  0  0  0  0  0  0  0  0  0  0
   -0.7426  -14.4478   27.7726 C   0  0  0  0  0  0  0  0  0  0  0  0
   -1.6027  -14.5653   28.8555 N   0  0  0  0  0  0  0  0  0  0  0  0
   -2.5484  -15.5210   29.1491 C   0  0  0  0  0  0  0  0  0  0  0  0
   -3.1125  -15.1175   30.3350 C   0  0  0  0  0  0  0  0  0  0  0  0
   -2.5335  -13.9465   30.7698 N   0  0  0  0  0  0  0  0  0  0  0  0
   -1.6114  -13.6169   29.8767 C   0  0  0  0  0  0  0  0  0  0  0  0
   -0.7606  -12.5206   29.8406 N   0  0  0  0  0  0  0  0  0  0  0  0
    4.0097   -9.1102   28.2937 C   0  0  0  0  0  0  0  0  0  0  0  0
    5.1295   -9.3867   27.6176 N   0  0  0  0  0  0  0  0  0  0  0  0
    5.5565   -8.2135   26.9733 C   0  0  0  0  0  0  0  0  0  0  0  0
    6.7702   -8.1372   26.0977 C   0  0  0  0  0  0  0  0  0  0  0  0
    4.6943   -7.1944   27.2962 C   0  0  0  0  0  0  0  0  0  0  0  0
    3.7490   -7.7551   28.1190 N   0  0  0  0  0  0  0  0  0  0  0  0
    5.8012   -9.8664   31.8649 H   0  0  0  0  0  0  0  0  0  0  0  0
    4.4800   -8.7081   31.6459 H   0  0  0  0  0  0  0  0  0  0  0  0
    5.7666   -8.8403   30.4293 H   0  0  0  0  0  0  0  0  0  0  0  0
    3.8331  -11.0881   31.1774 H   0  0  0  0  0  0  0  0  0  0  0  0
    5.0161  -11.1651   29.8810 H   0  0  0  0  0  0  0  0  0  0  0  0
    2.6757   -9.1860   29.9689 H   0  0  0  0  0  0  0  0  0  0  0  0
    2.4440  -11.9701   29.5466 H   0  0  0  0  0  0  0  0  0  0  0  0
    0.7705  -13.2345   26.8584 H   0  0  0  0  0  0  0  0  0  0  0  0
   -0.7897  -15.2153   27.0099 H   0  0  0  0  0  0  0  0  0  0  0  0
   -2.7284  -16.3712   28.5082 H   0  0  0  0  0  0  0  0  0  0  0  0
   -3.8984  -15.6001   30.9024 H   0  0  0  0  0  0  0  0  0  0  0  0
    7.0221   -9.1255   25.7035 H   0  0  0  0  0  0  0  0  0  0  0  0
    7.6224   -7.7695   26.6772 H   0  0  0  0  0  0  0  0  0  0  0  0
    6.5984   -7.4559   25.2594 H   0  0  0  0  0  0  0  0  0  0  0  0
    4.6764   -6.1486   27.0262 H   0  0  0  0  0  0  0  0  0  0  0  0
    3.0166   -7.2529   28.5992 H   0  0  0  0  0  0  0  0  0  0  0  0
  1  2  1  0
  2  3  1  0
  3  4  1  0
  4  5  1  0
  5  6  2  0
  5  7  1  0
  7  8  1  0
  8  9  2  0
  9 10  1  0
 10 11  1  0
 11 12  2  0
 12 13  1  0
 13 14  2  0
 14 15  1  0
  3 16  1  0
 16 17  2  0
 17 18  1  0
 18 19  1  0
 18 20  2  0
 20 21  1  0
 15  7  2  0
 21 16  1  0
 14 10  1  0
  1 22  1  0
  1 23  1  0
  1 24  1  0
  2 25  1  0
  2 26  1  0
  3 27  1  0
  4 28  1  0
  8 29  1  0
  9 30  1  0
 11 31  1  0
 12 32  1  0
 19 33  1  0
 19 34  1  0
 19 35  1  0
 20 36  1  0
 21 37  1  0
M  END
>  <Energy>  (322) 
78.455562468196774

>  <compound_id>  (322) 
8682

>  <target_id>  (322) 
1

>  <reference_id>  (322) 
107

>  <inspiration_ids>  (322) 
[114, 107]

>  <energy_score>  (322) 
9.134786909691229

>  <distance_score>  (322) 
14.984485365681023

>  <path>  (322) 
/opt/xchem-fragalysis-2/maxwin/BulkDock/SCRATCH/511022/C8682-P107/C8682-P107.minimised.mol

>  <scratch_subdir>  (322) 
/opt/xchem-fragalysis-2/maxwin/BulkDock/SCRATCH/511022/C8682-P107

>  <fragmenstein_runtime>  (322) 
33.15865445137024

>  <fragmenstein_outcome>  (322) 
too moved

>  <fragmenstein_mode>  (322) 
expansion

>  <fragmenstein_error>  (322) 


$$$$
C8684-P114
     RDKit          3D

 37 39  0  0  0  0  0  0  0  0999 V2000
    0.7114  -16.8895   19.4632 C   0  0  0  0  0  0  0  0  0  0  0  0
    0.5723  -17.2643   20.6397 N   0  0  0  0  0  0  0  0  0  0  0  0
    1.6571  -15.4725   20.4958 C   0  0  0  0  0  0  0  0  0  0  0  0
    2.5495  -14.3449   18.8362 C   0  0  0  0  0  0  0  0  0  0  0  0
    3.5439  -12.4968   18.2323 C   0  0  0  0  0  0  0  0  0  0  0  0
    3.4468  -10.6239   17.4284 N   0  0  0  0  0  0  0  0  0  0  0  0
    4.8135   -9.5336   18.1429 C   0  0  0  0  0  0  0  0  0  0  0  0
    4.7767   -8.2074   18.3067 C   0  0  0  0  0  0  0  0  0  0  0  0
    3.1175   -8.2029   17.9589 N   0  0  0  0  0  0  0  0  0  0  0  0
    2.5727   -9.3977   17.8383 C   0  0  0  0  0  0  0  0  0  0  0  0
    1.0001  -18.9475   21.4952 C   0  0  0  0  0  0  0  0  0  0  0  0
    1.6098  -19.8320   20.8569 O   0  0  0  0  0  0  0  0  0  0  0  0
    0.4029  -19.7254   23.2355 C   0  0  0  0  0  0  0  0  0  0  0  0
    1.3527  -20.6364   24.0456 C   0  0  0  0  0  0  0  0  0  0  0  0
    0.8166  -21.3748   25.0395 C   0  0  0  0  0  0  0  0  0  0  0  0
   -0.5501  -21.3484   25.2721 N   0  0  0  0  0  0  0  0  0  0  0  0
   -1.3147  -21.9562   26.2429 C   0  0  0  0  0  0  0  0  0  0  0  0
   -2.6043  -21.5477   26.0024 C   0  0  0  0  0  0  0  0  0  0  0  0
   -2.6436  -20.7173   24.9112 N   0  0  0  0  0  0  0  0  0  0  0  0
   -1.3999  -20.6177   24.4614 C   0  0  0  0  0  0  0  0  0  0  0  0
   -0.9057  -19.8753   23.4007 N   0  0  0  0  0  0  0  0  0  0  0  0
    0.9758  -15.9872   19.0033 H   0  0  0  0  0  0  0  0  0  0  0  0
    0.9169  -17.6917   18.6937 H   0  0  0  0  0  0  0  0  0  0  0  0
   -0.3575  -16.5983   19.8146 H   0  0  0  0  0  0  0  0  0  0  0  0
    0.9711  -15.1069   21.2116 H   0  0  0  0  0  0  0  0  0  0  0  0
    2.5177  -15.0441   20.9557 H   0  0  0  0  0  0  0  0  0  0  0  0
    1.8027  -14.3512   18.0299 H   0  0  0  0  0  0  0  0  0  0  0  0
    3.3022  -15.0487   18.4582 H   0  0  0  0  0  0  0  0  0  0  0  0
    2.7575  -11.8985   18.3695 H   0  0  0  0  0  0  0  0  0  0  0  0
    3.9595  -12.4548   17.2812 H   0  0  0  0  0  0  0  0  0  0  0  0
    5.5816  -10.2525   18.5687 H   0  0  0  0  0  0  0  0  0  0  0  0
    5.3026   -7.2764   18.4453 H   0  0  0  0  0  0  0  0  0  0  0  0
    1.5193   -9.4453   17.9294 H   0  0  0  0  0  0  0  0  0  0  0  0
    2.3981  -20.6449   23.7617 H   0  0  0  0  0  0  0  0  0  0  0  0
    1.4146  -22.0234   25.6662 H   0  0  0  0  0  0  0  0  0  0  0  0
   -0.8814  -22.5988   26.9948 H   0  0  0  0  0  0  0  0  0  0  0  0
   -3.5026  -21.8050   26.5484 H   0  0  0  0  0  0  0  0  0  0  0  0
  1  2  1  0
  2  3  1  0
  3  4  1  0
  4  5  1  0
  5  6  1  0
  6  7  1  0
  7  8  2  0
  8  9  1  0
  9 10  2  0
  2 11  1  0
 11 12  2  0
 11 13  1  0
 13 14  1  0
 14 15  2  0
 15 16  1  0
 16 17  1  0
 17 18  2  0
 18 19  1  0
 19 20  2  0
 20 21  1  0
 10  6  1  0
 21 13  2  0
 20 16  1  0
  1 22  1  0
  1 23  1  0
  1 24  1  0
  3 25  1  0
  3 26  1  0
  4 27  1  0
  4 28  1  0
  5 29  1  0
  5 30  1  0
  7 31  1  0
  8 32  1  0
 10 33  1  0
 14 34  1  0
 15 35  1  0
 17 36  1  0
 18 37  1  0
M  END
>  <Energy>  (323) 
1158.1442593508343

>  <compound_id>  (323) 
8684

>  <target_id>  (323) 
1

>  <reference_id>  (323) 
114

>  <inspiration_ids>  (323) 
[114, 107]

>  <energy_score>  (323) 
1072.5071680620654

>  <distance_score>  (323) 
12.54449944071112

>  <path>  (323) 
/opt/xchem-fragalysis-2/maxwin/BulkDock/SCRATCH/511022/C8684-P114/C8684-P114.minimised.mol

>  <scratch_subdir>  (323) 
/opt/xchem-fragalysis-2/maxwin/BulkDock/SCRATCH/511022/C8684-P114

>  <fragmenstein_runtime>  (323) 
25.087388277053833

>  <fragmenstein_outcome>  (323) 
too moved

>  <fragmenstein_mode>  (323) 
expansion

>  <fragmenstein_error>  (323) 


$$$$
C8684-P107
     RDKit          3D

 37 39  0  0  0  0  0  0  0  0999 V2000
   -7.7263   -9.8009   23.4850 C   0  0  0  0  0  0  0  0  0  0  0  0
   -7.4909  -11.1558   23.9945 N   0  0  0  0  0  0  0  0  0  0  0  0
   -6.8393  -11.3294   22.5805 C   0  0  0  0  0  0  0  0  0  0  0  0
   -6.0417  -10.3354   21.5596 C   0  0  0  0  0  0  0  0  0  0  0  0
   -4.6999   -9.6300   21.9161 C   0  0  0  0  0  0  0  0  0  0  0  0
   -3.8191   -9.2584   20.7791 N   0  0  0  0  0  0  0  0  0  0  0  0
   -2.4555   -9.4033   20.6893 C   0  0  0  0  0  0  0  0  0  0  0  0
   -2.1039   -8.9018   19.4556 C   0  0  0  0  0  0  0  0  0  0  0  0
   -3.1942   -8.4156   18.7965 N   0  0  0  0  0  0  0  0  0  0  0  0
   -4.1999   -8.6168   19.6229 C   0  0  0  0  0  0  0  0  0  0  0  0
   -8.4251  -12.2472   24.2577 C   0  0  0  0  0  0  0  0  0  0  0  0
   -9.6084  -12.3352   24.0360 O   0  0  0  0  0  0  0  0  0  0  0  0
   -7.9220  -13.4930   25.0469 C   0  0  0  0  0  0  0  0  0  0  0  0
   -7.5977  -14.7356   24.2641 C   0  0  0  0  0  0  0  0  0  0  0  0
   -7.3523  -15.8484   24.9794 C   0  0  0  0  0  0  0  0  0  0  0  0
   -7.4382  -15.8053   26.3644 N   0  0  0  0  0  0  0  0  0  0  0  0
   -7.1991  -16.7764   27.3038 C   0  0  0  0  0  0  0  0  0  0  0  0
   -7.4671  -16.1837   28.5118 C   0  0  0  0  0  0  0  0  0  0  0  0
   -7.8644  -14.8827   28.3361 N   0  0  0  0  0  0  0  0  0  0  0  0
   -7.7880  -14.6385   27.0394 C   0  0  0  0  0  0  0  0  0  0  0  0
   -8.0076  -13.4650   26.3561 N   0  0  0  0  0  0  0  0  0  0  0  0
   -6.8379   -9.1627   23.5020 H   0  0  0  0  0  0  0  0  0  0  0  0
   -8.3562   -9.3509   24.2679 H   0  0  0  0  0  0  0  0  0  0  0  0
   -8.3879   -9.7300   22.6083 H   0  0  0  0  0  0  0  0  0  0  0  0
   -7.6315  -11.7798   21.9553 H   0  0  0  0  0  0  0  0  0  0  0  0
   -6.1649  -12.1628   22.7661 H   0  0  0  0  0  0  0  0  0  0  0  0
   -5.8378  -10.9572   20.6777 H   0  0  0  0  0  0  0  0  0  0  0  0
   -6.7344   -9.5727   21.1799 H   0  0  0  0  0  0  0  0  0  0  0  0
   -4.1150  -10.2624   22.5808 H   0  0  0  0  0  0  0  0  0  0  0  0
   -4.8926   -8.6887   22.4427 H   0  0  0  0  0  0  0  0  0  0  0  0
   -1.8335   -9.8181   21.4630 H   0  0  0  0  0  0  0  0  0  0  0  0
   -1.1178   -8.7998   19.0305 H   0  0  0  0  0  0  0  0  0  0  0  0
   -5.2259   -8.3294   19.4318 H   0  0  0  0  0  0  0  0  0  0  0  0
   -7.6000  -14.6951   23.1867 H   0  0  0  0  0  0  0  0  0  0  0  0
   -7.0918  -16.7927   24.5207 H   0  0  0  0  0  0  0  0  0  0  0  0
   -6.8300  -17.7577   27.0529 H   0  0  0  0  0  0  0  0  0  0  0  0
   -7.3621  -16.6144   29.4990 H   0  0  0  0  0  0  0  0  0  0  0  0
  1  2  1  0
  2  3  1  0
  3  4  1  0
  4  5  1  0
  5  6  1  0
  6  7  1  0
  7  8  2  0
  8  9  1  0
  9 10  2  0
  2 11  1  0
 11 12  2  0
 11 13  1  0
 13 14  1  0
 14 15  2  0
 15 16  1  0
 16 17  1  0
 17 18  2  0
 18 19  1  0
 19 20  2  0
 20 21  1  0
 10  6  1  0
 21 13  2  0
 20 16  1  0
  1 22  1  0
  1 23  1  0
  1 24  1  0
  3 25  1  0
  3 26  1  0
  4 27  1  0
  4 28  1  0
  5 29  1  0
  5 30  1  0
  7 31  1  0
  8 32  1  0
 10 33  1  0
 14 34  1  0
 15 35  1  0
 17 36  1  0
 18 37  1  0
M  END
>  <Energy>  (324) 
161.07319742887793

>  <compound_id>  (324) 
8684

>  <target_id>  (324) 
1

>  <reference_id>  (324) 
107

>  <inspiration_ids>  (324) 
[114, 107]

>  <energy_score>  (324) 
75.43610614010947

>  <distance_score>  (324) 
13.437408711765402

>  <path>  (324) 
/opt/xchem-fragalysis-2/maxwin/BulkDock/SCRATCH/511022/C8684-P107/C8684-P107.minimised.mol

>  <scratch_subdir>  (324) 
/opt/xchem-fragalysis-2/maxwin/BulkDock/SCRATCH/511022/C8684-P107

>  <fragmenstein_runtime>  (324) 
27.127161502838135

>  <fragmenstein_outcome>  (324) 
too moved

>  <fragmenstein_mode>  (324) 
expansion

>  <fragmenstein_error>  (324) 


$$$$
C8685-P114
     RDKit          3D

 38 41  0  0  0  0  0  0  0  0999 V2000
   -2.0342  -14.8885   20.6798 O   0  0  0  0  0  0  0  0  0  0  0  0
   -2.0992  -14.9619   19.5083 C   0  0  0  0  0  0  0  0  0  0  0  0
   -1.9717  -13.3726   18.5101 N   0  0  0  0  0  0  0  0  0  0  0  0
   -1.8903  -11.5943   19.0558 C   0  0  0  0  0  0  0  0  0  0  0  0
   -1.6551   -9.7309   19.0541 C   0  0  0  0  0  0  0  0  0  0  0  0
   -0.8630   -9.0150   20.0337 C   0  0  0  0  0  0  0  0  0  0  0  0
    0.7207   -8.3934   19.6829 C   0  0  0  0  0  0  0  0  0  0  0  0
    1.7348   -8.3841   18.3763 C   0  0  0  0  0  0  0  0  0  0  0  0
    3.4425   -7.6568   17.8457 C   0  0  0  0  0  0  0  0  0  0  0  0
    4.1644   -6.8333   16.5423 N   0  0  0  0  0  0  0  0  0  0  0  0
    5.2690   -6.0603   16.5972 C   0  0  0  0  0  0  0  0  0  0  0  0
    5.8236   -6.4201   17.7285 C   0  0  0  0  0  0  0  0  0  0  0  0
    4.7865   -6.9705   18.4086 N   0  0  0  0  0  0  0  0  0  0  0  0
    0.5223   -8.5040   17.5921 C   0  0  0  0  0  0  0  0  0  0  0  0
   -1.1128   -9.0592   17.9684 C   0  0  0  0  0  0  0  0  0  0  0  0
   -2.4905  -16.6385   19.0523 C   0  0  0  0  0  0  0  0  0  0  0  0
   -2.5026  -17.6077   20.2475 C   0  0  0  0  0  0  0  0  0  0  0  0
   -3.1203  -18.8016   20.3164 C   0  0  0  0  0  0  0  0  0  0  0  0
   -4.1591  -18.9582   19.4492 N   0  0  0  0  0  0  0  0  0  0  0  0
   -5.2366  -19.7972   19.5418 C   0  0  0  0  0  0  0  0  0  0  0  0
   -6.1068  -19.3274   18.5945 C   0  0  0  0  0  0  0  0  0  0  0  0
   -5.5592  -18.2551   17.9197 N   0  0  0  0  0  0  0  0  0  0  0  0
   -4.3539  -18.0387   18.4246 C   0  0  0  0  0  0  0  0  0  0  0  0
   -3.4627  -16.9707   18.1835 N   0  0  0  0  0  0  0  0  0  0  0  0
   -1.9608  -13.6102   17.5211 H   0  0  0  0  0  0  0  0  0  0  0  0
   -2.9535  -11.4529   18.8010 H   0  0  0  0  0  0  0  0  0  0  0  0
   -1.8867  -11.7565   20.1426 H   0  0  0  0  0  0  0  0  0  0  0  0
   -1.0472   -9.1264   21.1045 H   0  0  0  0  0  0  0  0  0  0  0  0
    0.8958   -7.8517   20.6184 H   0  0  0  0  0  0  0  0  0  0  0  0
    5.5391   -5.4502   15.7708 H   0  0  0  0  0  0  0  0  0  0  0  0
    6.7125   -6.1642   18.2428 H   0  0  0  0  0  0  0  0  0  0  0  0
    4.4448   -6.3304   19.0658 H   0  0  0  0  0  0  0  0  0  0  0  0
    0.5795   -8.2319   16.5396 H   0  0  0  0  0  0  0  0  0  0  0  0
   -1.7578   -9.2678   17.1461 H   0  0  0  0  0  0  0  0  0  0  0  0
   -3.1102  -17.0191   20.9278 H   0  0  0  0  0  0  0  0  0  0  0  0
   -3.1609  -19.3971   21.2199 H   0  0  0  0  0  0  0  0  0  0  0  0
   -5.3017  -20.5975   20.2640 H   0  0  0  0  0  0  0  0  0  0  0  0
   -7.0934  -19.6975   18.3461 H   0  0  0  0  0  0  0  0  0  0  0  0
  1  2  2  0
  2  3  1  0
  3  4  1  0
  4  5  1  0
  5  6  2  0
  6  7  1  0
  7  8  2  0
  8  9  1  0
  9 10  2  0
 10 11  1  0
 11 12  2  0
 12 13  1  0
  8 14  1  0
 14 15  2  0
  2 16  1  0
 16 17  1  0
 17 18  2  0
 18 19  1  0
 19 20  1  0
 20 21  2  0
 21 22  1  0
 22 23  2  0
 23 24  1  0
 15  5  1  0
 24 16  2  0
 13  9  1  0
 23 19  1  0
  3 25  1  0
  4 26  1  0
  4 27  1  0
  6 28  1  0
  7 29  1  0
 11 30  1  0
 12 31  1  0
 13 32  1  0
 14 33  1  0
 15 34  1  0
 17 35  1  0
 18 36  1  0
 20 37  1  0
 21 38  1  0
M  END
>  <Energy>  (325) 
792.20414408850411

>  <compound_id>  (325) 
8685

>  <target_id>  (325) 
1

>  <reference_id>  (325) 
114

>  <inspiration_ids>  (325) 
[114, 107]

>  <energy_score>  (325) 
705.3724871256736

>  <distance_score>  (325) 
13.215885380905522

>  <path>  (325) 
/opt/xchem-fragalysis-2/maxwin/BulkDock/SCRATCH/511022/C8685-P114/C8685-P114.minimised.mol

>  <scratch_subdir>  (325) 
/opt/xchem-fragalysis-2/maxwin/BulkDock/SCRATCH/511022/C8685-P114

>  <fragmenstein_runtime>  (325) 
21.20181441307068

>  <fragmenstein_outcome>  (325) 
too moved

>  <fragmenstein_mode>  (325) 
expansion

>  <fragmenstein_error>  (325) 


$$$$
C8685-P107
     RDKit          3D

 38 41  0  0  0  0  0  0  0  0999 V2000
   -2.0815  -14.6373   20.8029 O   0  0  0  0  0  0  0  0  0  0  0  0
   -1.9838  -14.7834   19.6372 C   0  0  0  0  0  0  0  0  0  0  0  0
   -1.9630  -13.2409   18.5594 N   0  0  0  0  0  0  0  0  0  0  0  0
   -2.2033  -11.4415   18.9851 C   0  0  0  0  0  0  0  0  0  0  0  0
   -1.6017   -9.6812   19.1007 C   0  0  0  0  0  0  0  0  0  0  0  0
   -1.0413   -9.0440   17.9867 C   0  0  0  0  0  0  0  0  0  0  0  0
    0.6117   -8.5405   17.5812 C   0  0  0  0  0  0  0  0  0  0  0  0
    1.8390   -8.3997   18.3653 C   0  0  0  0  0  0  0  0  0  0  0  0
    3.5316   -7.5849   17.8696 C   0  0  0  0  0  0  0  0  0  0  0  0
    4.2385   -6.7924   16.5771 N   0  0  0  0  0  0  0  0  0  0  0  0
    5.4194   -6.1655   16.6655 C   0  0  0  0  0  0  0  0  0  0  0  0
    5.8327   -6.4379   17.8774 C   0  0  0  0  0  0  0  0  0  0  0  0
    4.7081   -6.8819   18.4819 N   0  0  0  0  0  0  0  0  0  0  0  0
    0.7836   -8.3846   19.6747 C   0  0  0  0  0  0  0  0  0  0  0  0
   -0.8010   -8.9958   20.0768 C   0  0  0  0  0  0  0  0  0  0  0  0
   -2.0432  -16.4399   19.2795 C   0  0  0  0  0  0  0  0  0  0  0  0
   -1.0821  -17.3984   20.0646 C   0  0  0  0  0  0  0  0  0  0  0  0
   -1.5147  -18.6107   20.4642 C   0  0  0  0  0  0  0  0  0  0  0  0
   -2.8449  -18.9237   20.2860 N   0  0  0  0  0  0  0  0  0  0  0  0
   -3.6122  -19.9013   20.8766 C   0  0  0  0  0  0  0  0  0  0  0  0
   -4.9004  -19.6191   20.4949 C   0  0  0  0  0  0  0  0  0  0  0  0
   -4.9242  -18.5266   19.6581 N   0  0  0  0  0  0  0  0  0  0  0  0
   -3.6690  -18.1189   19.5133 C   0  0  0  0  0  0  0  0  0  0  0  0
   -3.1861  -16.9801   18.8674 N   0  0  0  0  0  0  0  0  0  0  0  0
   -1.7912  -13.5209   17.5985 H   0  0  0  0  0  0  0  0  0  0  0  0
   -3.0789  -11.2640   18.3504 H   0  0  0  0  0  0  0  0  0  0  0  0
   -2.5565  -11.5630   20.0167 H   0  0  0  0  0  0  0  0  0  0  0  0
   -1.6893   -9.2498   17.1655 H   0  0  0  0  0  0  0  0  0  0  0  0
    0.6521   -8.2321   16.5359 H   0  0  0  0  0  0  0  0  0  0  0  0
    5.8722   -5.7053   15.8296 H   0  0  0  0  0  0  0  0  0  0  0  0
    6.7102   -6.2147   18.4303 H   0  0  0  0  0  0  0  0  0  0  0  0
    4.3621   -6.2457   19.1439 H   0  0  0  0  0  0  0  0  0  0  0  0
    0.9229   -7.7028   20.5208 H   0  0  0  0  0  0  0  0  0  0  0  0
   -0.9701   -9.0898   21.1497 H   0  0  0  0  0  0  0  0  0  0  0  0
   -0.1177  -17.0094   20.3535 H   0  0  0  0  0  0  0  0  0  0  0  0
   -0.9050  -19.2830   21.0558 H   0  0  0  0  0  0  0  0  0  0  0  0
   -3.1879  -20.6628   21.5138 H   0  0  0  0  0  0  0  0  0  0  0  0
   -5.8100  -20.1433   20.7587 H   0  0  0  0  0  0  0  0  0  0  0  0
  1  2  2  0
  2  3  1  0
  3  4  1  0
  4  5  1  0
  5  6  2  0
  6  7  1  0
  7  8  2  0
  8  9  1  0
  9 10  2  0
 10 11  1  0
 11 12  2  0
 12 13  1  0
  8 14  1  0
 14 15  2  0
  2 16  1  0
 16 17  1  0
 17 18  2  0
 18 19  1  0
 19 20  1  0
 20 21  2  0
 21 22  1  0
 22 23  2  0
 23 24  1  0
 15  5  1  0
 24 16  2  0
 13  9  1  0
 23 19  1  0
  3 25  1  0
  4 26  1  0
  4 27  1  0
  6 28  1  0
  7 29  1  0
 11 30  1  0
 12 31  1  0
 13 32  1  0
 14 33  1  0
 15 34  1  0
 17 35  1  0
 18 36  1  0
 20 37  1  0
 21 38  1  0
M  END
>  <Energy>  (326) 
694.17783963387558

>  <compound_id>  (326) 
8685

>  <target_id>  (326) 
1

>  <reference_id>  (326) 
107

>  <inspiration_ids>  (326) 
[114, 107]

>  <energy_score>  (326) 
607.3461826710522

>  <distance_score>  (326) 
13.227798706250672

>  <path>  (326) 
/opt/xchem-fragalysis-2/maxwin/BulkDock/SCRATCH/511022/C8685-P107/C8685-P107.minimised.mol

>  <scratch_subdir>  (326) 
/opt/xchem-fragalysis-2/maxwin/BulkDock/SCRATCH/511022/C8685-P107

>  <fragmenstein_runtime>  (326) 
24.775498628616333

>  <fragmenstein_outcome>  (326) 
too moved

>  <fragmenstein_mode>  (326) 
expansion

>  <fragmenstein_error>  (326) 


$$$$
C8678-P114
     RDKit          3D

 31 33  0  0  0  0  0  0  0  0999 V2000
   -6.1478  -15.6499   16.9675 O   0  0  0  0  0  0  0  0  0  0  0  0
   -5.1775  -15.9100   17.6209 C   0  0  0  0  0  0  0  0  0  0  0  0
   -3.7859  -15.5490   17.4320 N   0  0  0  0  0  0  0  0  0  0  0  0
   -3.1260  -14.6516   16.4155 C   0  0  0  0  0  0  0  0  0  0  0  0
   -3.0898  -15.0125   14.8881 C   0  0  0  0  0  0  0  0  0  0  0  0
   -1.8018  -14.6671   14.0847 C   0  0  0  0  0  0  0  0  0  0  0  0
   -0.7890  -15.6252   14.1009 N   0  0  0  0  0  0  0  0  0  0  0  0
    0.1711  -15.1815   13.3243 C   0  0  0  0  0  0  0  0  0  0  0  0
   -0.1144  -13.9521   12.8320 N   0  0  0  0  0  0  0  0  0  0  0  0
   -1.3920  -13.6419   13.2218 C   0  0  0  0  0  0  0  0  0  0  0  0
   -2.1632  -12.0124   12.6182 Br  0  0  0  0  0  0  0  0  0  0  0  0
   -5.5036  -16.7089   18.9648 C   0  0  0  0  0  0  0  0  0  0  0  0
   -5.9743  -18.1370   18.7885 C   0  0  0  0  0  0  0  0  0  0  0  0
   -6.4435  -18.7630   19.8837 C   0  0  0  0  0  0  0  0  0  0  0  0
   -6.4548  -18.0930   21.0968 N   0  0  0  0  0  0  0  0  0  0  0  0
   -6.9139  -18.4980   22.3262 C   0  0  0  0  0  0  0  0  0  0  0  0
   -6.6688  -17.4407   23.1663 C   0  0  0  0  0  0  0  0  0  0  0  0
   -6.1007  -16.3948   22.4805 N   0  0  0  0  0  0  0  0  0  0  0  0
   -5.9672  -16.7915   21.2237 C   0  0  0  0  0  0  0  0  0  0  0  0
   -5.4820  -16.0966   20.1277 N   0  0  0  0  0  0  0  0  0  0  0  0
   -3.2476  -15.8747   18.2297 H   0  0  0  0  0  0  0  0  0  0  0  0
   -2.1139  -14.4911   16.7868 H   0  0  0  0  0  0  0  0  0  0  0  0
   -3.6481  -13.6924   16.5128 H   0  0  0  0  0  0  0  0  0  0  0  0
   -3.9417  -14.5346   14.3896 H   0  0  0  0  0  0  0  0  0  0  0  0
   -3.2422  -16.0950   14.7897 H   0  0  0  0  0  0  0  0  0  0  0  0
    1.0758  -15.7175   13.0829 H   0  0  0  0  0  0  0  0  0  0  0  0
    0.4742  -13.3835   12.2434 H   0  0  0  0  0  0  0  0  0  0  0  0
   -5.9542  -18.5748   17.7993 H   0  0  0  0  0  0  0  0  0  0  0  0
   -6.8319  -19.7737   19.8658 H   0  0  0  0  0  0  0  0  0  0  0  0
   -7.3501  -19.4736   22.4721 H   0  0  0  0  0  0  0  0  0  0  0  0
   -6.8632  -17.3576   24.2254 H   0  0  0  0  0  0  0  0  0  0  0  0
  1  2  2  0
  2  3  1  0
  3  4  1  0
  4  5  1  0
  5  6  1  0
  6  7  1  0
  7  8  2  0
  8  9  1  0
  9 10  1  0
 10 11  1  0
  2 12  1  0
 12 13  1  0
 13 14  2  0
 14 15  1  0
 15 16  1  0
 16 17  2  0
 17 18  1  0
 18 19  2  0
 19 20  1  0
 10  6  2  0
 20 12  2  0
 19 15  1  0
  3 21  1  0
  4 22  1  0
  4 23  1  0
  5 24  1  0
  5 25  1  0
  8 26  1  0
  9 27  1  0
 13 28  1  0
 14 29  1  0
 16 30  1  0
 17 31  1  0
M  END
>  <Energy>  (327) 
76.211919975537143

>  <compound_id>  (327) 
8678

>  <target_id>  (327) 
1

>  <reference_id>  (327) 
114

>  <inspiration_ids>  (327) 
[114, 107]

>  <energy_score>  (327) 
-3.924562063289386

>  <distance_score>  (327) 
15.235285878195725

>  <path>  (327) 
/opt/xchem-fragalysis-2/maxwin/BulkDock/SCRATCH/511022/C8678-P114/C8678-P114.minimised.mol

>  <scratch_subdir>  (327) 
/opt/xchem-fragalysis-2/maxwin/BulkDock/SCRATCH/511022/C8678-P114

>  <fragmenstein_runtime>  (327) 
27.256158113479614

>  <fragmenstein_outcome>  (327) 
too moved

>  <fragmenstein_mode>  (327) 
expansion

>  <fragmenstein_error>  (327) 


$$$$
C8678-P107
     RDKit          3D

 31 33  0  0  0  0  0  0  0  0999 V2000
   -7.1612  -13.5883   21.5575 O   0  0  0  0  0  0  0  0  0  0  0  0
   -6.9113  -12.9503   22.5430 C   0  0  0  0  0  0  0  0  0  0  0  0
   -6.2838  -11.6376   22.6941 N   0  0  0  0  0  0  0  0  0  0  0  0
   -5.8434  -10.6299   21.6617 C   0  0  0  0  0  0  0  0  0  0  0  0
   -4.8488   -9.4732   22.0361 C   0  0  0  0  0  0  0  0  0  0  0  0
   -3.4129   -9.3853   21.4541 C   0  0  0  0  0  0  0  0  0  0  0  0
   -2.3595   -9.3361   22.3699 N   0  0  0  0  0  0  0  0  0  0  0  0
   -1.2472   -9.1636   21.6852 C   0  0  0  0  0  0  0  0  0  0  0  0
   -1.5042   -9.1612   20.3619 N   0  0  0  0  0  0  0  0  0  0  0  0
   -2.8587   -9.1635   20.2031 C   0  0  0  0  0  0  0  0  0  0  0  0
   -3.6070   -8.7880   18.5220 Br  0  0  0  0  0  0  0  0  0  0  0  0
   -7.2441  -13.7702   23.8569 C   0  0  0  0  0  0  0  0  0  0  0  0
   -6.5194  -15.1050   23.9510 C   0  0  0  0  0  0  0  0  0  0  0  0
   -6.8463  -15.9133   24.9730 C   0  0  0  0  0  0  0  0  0  0  0  0
   -7.8201  -15.5062   25.8683 N   0  0  0  0  0  0  0  0  0  0  0  0
   -8.3199  -16.1418   26.9794 C   0  0  0  0  0  0  0  0  0  0  0  0
   -9.3004  -15.3093   27.4566 C   0  0  0  0  0  0  0  0  0  0  0  0
   -9.3949  -14.1777   26.6806 N   0  0  0  0  0  0  0  0  0  0  0  0
   -8.4751  -14.2781   25.7344 C   0  0  0  0  0  0  0  0  0  0  0  0
   -8.1554  -13.3881   24.7175 N   0  0  0  0  0  0  0  0  0  0  0  0
   -6.3074  -11.3692   23.6740 H   0  0  0  0  0  0  0  0  0  0  0  0
   -6.7858  -10.1631   21.3490 H   0  0  0  0  0  0  0  0  0  0  0  0
   -5.4870  -11.1908   20.7912 H   0  0  0  0  0  0  0  0  0  0  0  0
   -5.3282   -8.5287   21.7432 H   0  0  0  0  0  0  0  0  0  0  0  0
   -4.7638   -9.4402   23.1300 H   0  0  0  0  0  0  0  0  0  0  0  0
   -0.2456   -9.0642   22.0781 H   0  0  0  0  0  0  0  0  0  0  0  0
   -0.8025   -9.1479   19.6296 H   0  0  0  0  0  0  0  0  0  0  0  0
   -5.7961  -15.3603   23.1869 H   0  0  0  0  0  0  0  0  0  0  0  0
   -6.3903  -16.8826   25.1276 H   0  0  0  0  0  0  0  0  0  0  0  0
   -7.9428  -17.0920   27.3258 H   0  0  0  0  0  0  0  0  0  0  0  0
   -9.9405  -15.4502   28.3184 H   0  0  0  0  0  0  0  0  0  0  0  0
  1  2  2  0
  2  3  1  0
  3  4  1  0
  4  5  1  0
  5  6  1  0
  6  7  1  0
  7  8  2  0
  8  9  1  0
  9 10  1  0
 10 11  1  0
  2 12  1  0
 12 13  1  0
 13 14  2  0
 14 15  1  0
 15 16  1  0
 16 17  2  0
 17 18  1  0
 18 19  2  0
 19 20  1  0
 10  6  2  0
 20 12  2  0
 19 15  1  0
  3 21  1  0
  4 22  1  0
  4 23  1  0
  5 24  1  0
  5 25  1  0
  8 26  1  0
  9 27  1  0
 13 28  1  0
 14 29  1  0
 16 30  1  0
 17 31  1  0
M  END
>  <Energy>  (328) 
80.900962150847491

>  <compound_id>  (328) 
8678

>  <target_id>  (328) 
1

>  <reference_id>  (328) 
107

>  <inspiration_ids>  (328) 
[114, 107]

>  <energy_score>  (328) 
0.7644801120239322

>  <distance_score>  (328) 
13.742730324795032

>  <path>  (328) 
/opt/xchem-fragalysis-2/maxwin/BulkDock/SCRATCH/511022/C8678-P107/C8678-P107.minimised.mol

>  <scratch_subdir>  (328) 
/opt/xchem-fragalysis-2/maxwin/BulkDock/SCRATCH/511022/C8678-P107

>  <fragmenstein_runtime>  (328) 
21.570636749267578

>  <fragmenstein_outcome>  (328) 
too moved

>  <fragmenstein_mode>  (328) 
expansion

>  <fragmenstein_error>  (328) 


$$$$
C8686-P114
     RDKit          3D

 32 34  0  0  0  0  0  0  0  0999 V2000
    5.0012   -8.8863   13.0812 C   0  0  0  0  0  0  0  0  0  0  0  0
    5.0133  -10.2799   13.4689 N   0  0  0  0  0  0  0  0  0  0  0  0
    5.9332  -10.8819   12.5779 C   0  0  0  0  0  0  0  0  0  0  0  0
    6.0645  -12.1534   12.9561 C   0  0  0  0  0  0  0  0  0  0  0  0
    5.1988  -12.3690   14.0035 N   0  0  0  0  0  0  0  0  0  0  0  0
    4.4998  -11.3032   14.4517 C   0  0  0  0  0  0  0  0  0  0  0  0
    3.3959  -11.6679   16.0011 C   0  0  0  0  0  0  0  0  0  0  0  0
    1.6336  -12.8039   15.8622 C   0  0  0  0  0  0  0  0  0  0  0  0
    0.4006  -13.5034   17.3094 N   0  0  0  0  0  0  0  0  0  0  0  0
   -1.3641  -13.9383   17.6296 C   0  0  0  0  0  0  0  0  0  0  0  0
   -2.4318  -14.6216   16.5110 C   0  0  0  0  0  0  0  0  0  0  0  0
   -3.2536  -15.7213   16.6626 C   0  0  0  0  0  0  0  0  0  0  0  0
   -3.1952  -16.5659   17.8193 N   0  0  0  0  0  0  0  0  0  0  0  0
   -3.9303  -17.6724   18.1932 C   0  0  0  0  0  0  0  0  0  0  0  0
   -3.4577  -18.0246   19.4356 C   0  0  0  0  0  0  0  0  0  0  0  0
   -2.4445  -17.1847   19.8243 N   0  0  0  0  0  0  0  0  0  0  0  0
   -2.2972  -16.2758   18.8779 C   0  0  0  0  0  0  0  0  0  0  0  0
   -1.5042  -14.9647   18.8382 N   0  0  0  0  0  0  0  0  0  0  0  0
    4.5816   -8.8043   12.0713 H   0  0  0  0  0  0  0  0  0  0  0  0
    4.5255   -8.1819   13.7141 H   0  0  0  0  0  0  0  0  0  0  0  0
    6.0377   -8.5291   13.0293 H   0  0  0  0  0  0  0  0  0  0  0  0
    6.4151  -10.3276   11.7841 H   0  0  0  0  0  0  0  0  0  0  0  0
    6.6996  -12.9348   12.5665 H   0  0  0  0  0  0  0  0  0  0  0  0
    3.9526  -12.0134   16.8616 H   0  0  0  0  0  0  0  0  0  0  0  0
    3.2475  -10.6959   16.4890 H   0  0  0  0  0  0  0  0  0  0  0  0
    1.3838  -12.7048   14.7605 H   0  0  0  0  0  0  0  0  0  0  0  0
    1.6346  -13.8727   15.8447 H   0  0  0  0  0  0  0  0  0  0  0  0
    1.0369  -14.1460   17.7704 H   0  0  0  0  0  0  0  0  0  0  0  0
   -2.2174  -14.3450   15.5047 H   0  0  0  0  0  0  0  0  0  0  0  0
   -3.8566  -16.1015   15.8476 H   0  0  0  0  0  0  0  0  0  0  0  0
   -4.7006  -18.0853   17.5606 H   0  0  0  0  0  0  0  0  0  0  0  0
   -3.7761  -18.8416   20.0692 H   0  0  0  0  0  0  0  0  0  0  0  0
  1  2  1  0
  2  3  1  0
  3  4  2  0
  4  5  1  0
  5  6  2  0
  6  7  1  0
  7  8  1  0
  8  9  1  0
  9 10  1  0
 10 11  1  0
 11 12  2  0
 12 13  1  0
 13 14  1  0
 14 15  2  0
 15 16  1  0
 16 17  2  0
 17 18  1  0
  6  2  1  0
 18 10  2  0
 17 13  1  0
  1 19  1  0
  1 20  1  0
  1 21  1  0
  3 22  1  0
  4 23  1  0
  7 24  1  0
  7 25  1  0
  8 26  1  0
  8 27  1  0
  9 28  1  0
 11 29  1  0
 12 30  1  0
 14 31  1  0
 15 32  1  0
M  END
>  <Energy>  (329) 
505.48133850459988

>  <compound_id>  (329) 
8686

>  <target_id>  (329) 
1

>  <reference_id>  (329) 
114

>  <inspiration_ids>  (329) 
[114, 107]

>  <energy_score>  (329) 
481.7322900586671

>  <distance_score>  (329) 
16.00076978439873

>  <path>  (329) 
/opt/xchem-fragalysis-2/maxwin/BulkDock/SCRATCH/511022/C8686-P114/C8686-P114.minimised.mol

>  <scratch_subdir>  (329) 
/opt/xchem-fragalysis-2/maxwin/BulkDock/SCRATCH/511022/C8686-P114

>  <fragmenstein_runtime>  (329) 
12.524801015853882

>  <fragmenstein_outcome>  (329) 
too moved

>  <fragmenstein_mode>  (329) 
expansion

>  <fragmenstein_error>  (329) 


$$$$
C8686-P107
     RDKit          3D

 32 34  0  0  0  0  0  0  0  0999 V2000
   -3.2197  -19.7356   16.1956 C   0  0  0  0  0  0  0  0  0  0  0  0
   -3.7135  -18.4189   16.5196 N   0  0  0  0  0  0  0  0  0  0  0  0
   -3.7580  -17.3615   15.6435 C   0  0  0  0  0  0  0  0  0  0  0  0
   -4.1643  -16.3005   16.4040 C   0  0  0  0  0  0  0  0  0  0  0  0
   -4.4855  -16.7301   17.6739 N   0  0  0  0  0  0  0  0  0  0  0  0
   -4.2604  -18.0247   17.7308 C   0  0  0  0  0  0  0  0  0  0  0  0
   -4.5396  -18.9788   18.9019 C   0  0  0  0  0  0  0  0  0  0  0  0
   -5.8285  -18.7301   19.7640 C   0  0  0  0  0  0  0  0  0  0  0  0
   -6.4437  -20.0122   20.2024 N   0  0  0  0  0  0  0  0  0  0  0  0
   -6.9357  -20.4000   21.4522 C   0  0  0  0  0  0  0  0  0  0  0  0
   -7.3208  -21.9189   21.5000 C   0  0  0  0  0  0  0  0  0  0  0  0
   -7.6673  -22.6495   22.5726 C   0  0  0  0  0  0  0  0  0  0  0  0
   -7.8121  -21.9827   23.7798 N   0  0  0  0  0  0  0  0  0  0  0  0
   -7.3729  -22.6180   25.7052 C   0  0  0  0  0  0  0  0  0  0  0  0
   -7.6821  -21.0776   26.8005 C   0  0  0  0  0  0  0  0  0  0  0  0
   -7.0399  -19.5551   25.5158 N   0  0  0  0  0  0  0  0  0  0  0  0
   -7.4072  -20.0016   23.6613 C   0  0  0  0  0  0  0  0  0  0  0  0
   -7.0043  -19.5340   22.4393 N   0  0  0  0  0  0  0  0  0  0  0  0
   -2.5443  -20.0621   16.9904 H   0  0  0  0  0  0  0  0  0  0  0  0
   -4.0733  -20.4120   16.1072 H   0  0  0  0  0  0  0  0  0  0  0  0
   -2.6742  -19.6968   15.2490 H   0  0  0  0  0  0  0  0  0  0  0  0
   -3.4408  -17.4397   14.6133 H   0  0  0  0  0  0  0  0  0  0  0  0
   -4.2719  -15.2659   16.1086 H   0  0  0  0  0  0  0  0  0  0  0  0
   -3.6678  -18.9531   19.5677 H   0  0  0  0  0  0  0  0  0  0  0  0
   -4.5883  -19.9989   18.5019 H   0  0  0  0  0  0  0  0  0  0  0  0
   -5.5720  -18.1102   20.6297 H   0  0  0  0  0  0  0  0  0  0  0  0
   -6.5761  -18.1888   19.1745 H   0  0  0  0  0  0  0  0  0  0  0  0
   -6.6170  -20.6422   19.4288 H   0  0  0  0  0  0  0  0  0  0  0  0
   -7.1877  -22.4371   20.5547 H   0  0  0  0  0  0  0  0  0  0  0  0
   -7.7944  -23.7233   22.5762 H   0  0  0  0  0  0  0  0  0  0  0  0
   -6.4732  -23.2482   25.6040 H   0  0  0  0  0  0  0  0  0  0  0  0
   -7.3093  -20.7143   27.6852 H   0  0  0  0  0  0  0  0  0  0  0  0
  1  2  1  0
  2  3  1  0
  3  4  2  0
  4  5  1  0
  5  6  2  0
  6  7  1  0
  7  8  1  0
  8  9  1  0
  9 10  1  0
 10 11  1  0
 11 12  2  0
 12 13  1  0
 13 14  1  0
 14 15  2  0
 15 16  1  0
 16 17  2  0
 17 18  1  0
  6  2  1  0
 18 10  2  0
 17 13  1  0
  1 19  1  0
  1 20  1  0
  1 21  1  0
  3 22  1  0
  4 23  1  0
  7 24  1  0
  7 25  1  0
  8 26  1  0
  8 27  1  0
  9 28  1  0
 11 29  1  0
 12 30  1  0
 14 31  1  0
 15 32  1  0
M  END
>  <Energy>  (330) 
696.12718167403034

>  <compound_id>  (330) 
8686

>  <target_id>  (330) 
1

>  <reference_id>  (330) 
107

>  <inspiration_ids>  (330) 
[114, 107]

>  <energy_score>  (330) 
672.3781332281105

>  <distance_score>  (330) 
15.218204816045485

>  <path>  (330) 
/opt/xchem-fragalysis-2/maxwin/BulkDock/SCRATCH/511022/C8686-P107/C8686-P107.minimised.mol

>  <scratch_subdir>  (330) 
/opt/xchem-fragalysis-2/maxwin/BulkDock/SCRATCH/511022/C8686-P107

>  <fragmenstein_runtime>  (330) 
21.13564705848694

>  <fragmenstein_outcome>  (330) 
too moved

>  <fragmenstein_mode>  (330) 
expansion

>  <fragmenstein_error>  (330) 


$$$$
C8687-P114
     RDKit          3D

 38 41  0  0  0  0  0  0  0  0999 V2000
    5.2042  -11.7777   21.0028 C   0  0  0  0  0  0  0  0  0  0  0  0
    4.8338  -12.8312   20.2998 C   0  0  0  0  0  0  0  0  0  0  0  0
    3.7065  -13.2079   20.9898 N   0  0  0  0  0  0  0  0  0  0  0  0
    3.4757  -12.7070   22.2695 C   0  0  0  0  0  0  0  0  0  0  0  0
    3.0742  -14.0016   23.5860 C   0  0  0  0  0  0  0  0  0  0  0  0
    1.9946  -15.5058   23.6154 N   0  0  0  0  0  0  0  0  0  0  0  0
    0.3974  -14.5067   24.3432 C   0  0  0  0  0  0  0  0  0  0  0  0
   -1.2753  -15.7173   24.6075 C   0  0  0  0  0  0  0  0  0  0  0  0
   -0.9019  -17.6164   25.5227 N   0  0  0  0  0  0  0  0  0  0  0  0
   -1.9291  -18.2715   26.2250 C   0  0  0  0  0  0  0  0  0  0  0  0
   -3.0601  -17.4461   26.7948 C   0  0  0  0  0  0  0  0  0  0  0  0
   -4.0843  -18.1325   27.2774 C   0  0  0  0  0  0  0  0  0  0  0  0
   -3.9929  -19.4915   27.2229 N   0  0  0  0  0  0  0  0  0  0  0  0
   -5.0038  -20.3494   27.3401 C   0  0  0  0  0  0  0  0  0  0  0  0
   -4.4651  -21.6039   27.2204 C   0  0  0  0  0  0  0  0  0  0  0  0
   -3.1391  -21.5116   26.9308 N   0  0  0  0  0  0  0  0  0  0  0  0
   -2.8976  -20.2194   26.8302 C   0  0  0  0  0  0  0  0  0  0  0  0
   -1.8333  -19.5737   26.3082 N   0  0  0  0  0  0  0  0  0  0  0  0
    0.6754  -18.7247   24.9414 C   0  0  0  0  0  0  0  0  0  0  0  0
    2.2965  -17.4936   24.4714 C   0  0  0  0  0  0  0  0  0  0  0  0
    4.2162  -11.5654   22.1913 N   0  0  0  0  0  0  0  0  0  0  0  0
    6.0752  -11.2219   20.8249 H   0  0  0  0  0  0  0  0  0  0  0  0
    5.2022  -13.3427   19.4402 H   0  0  0  0  0  0  0  0  0  0  0  0
    3.2003  -14.0322   20.7294 H   0  0  0  0  0  0  0  0  0  0  0  0
    2.5654  -13.2547   24.2058 H   0  0  0  0  0  0  0  0  0  0  0  0
    3.8994  -14.4127   24.1673 H   0  0  0  0  0  0  0  0  0  0  0  0
    0.8150  -13.9091   25.1910 H   0  0  0  0  0  0  0  0  0  0  0  0
    0.0183  -14.0205   23.4305 H   0  0  0  0  0  0  0  0  0  0  0  0
   -1.8996  -15.0291   25.3218 H   0  0  0  0  0  0  0  0  0  0  0  0
   -2.2042  -15.5719   24.0437 H   0  0  0  0  0  0  0  0  0  0  0  0
   -3.0429  -16.3695   26.7950 H   0  0  0  0  0  0  0  0  0  0  0  0
   -4.9833  -17.6791   27.6724 H   0  0  0  0  0  0  0  0  0  0  0  0
   -5.9837  -19.9089   27.4255 H   0  0  0  0  0  0  0  0  0  0  0  0
   -4.9641  -22.5622   27.2569 H   0  0  0  0  0  0  0  0  0  0  0  0
    0.3505  -19.4980   24.2183 H   0  0  0  0  0  0  0  0  0  0  0  0
    0.9479  -19.2450   25.8827 H   0  0  0  0  0  0  0  0  0  0  0  0
    2.8153  -17.6576   25.5158 H   0  0  0  0  0  0  0  0  0  0  0  0
    3.1944  -17.9400   23.9314 H   0  0  0  0  0  0  0  0  0  0  0  0
  1  2  2  0
  2  3  1  0
  3  4  1  0
  4  5  1  0
  5  6  1  0
  6  7  1  0
  7  8  1  0
  8  9  1  0
  9 10  1  0
 10 11  1  0
 11 12  2  0
 12 13  1  0
 13 14  1  0
 14 15  2  0
 15 16  1  0
 16 17  2  0
 17 18  1  0
  9 19  1  0
 19 20  1  0
  4 21  2  0
 21  1  1  0
 20  6  1  0
 18 10  2  0
 17 13  1  0
  1 22  1  0
  2 23  1  0
  3 24  1  0
  5 25  1  0
  5 26  1  0
  7 27  1  0
  7 28  1  0
  8 29  1  0
  8 30  1  0
 11 31  1  0
 12 32  1  0
 14 33  1  0
 15 34  1  0
 19 35  1  0
 19 36  1  0
 20 37  1  0
 20 38  1  0
M  END
>  <Energy>  (331) 
836.38324844457395

>  <compound_id>  (331) 
8687

>  <target_id>  (331) 
1

>  <reference_id>  (331) 
114

>  <inspiration_ids>  (331) 
[114, 107]

>  <energy_score>  (331) 
723.3591738712511

>  <distance_score>  (331) 
12.036841224426592

>  <path>  (331) 
/opt/xchem-fragalysis-2/maxwin/BulkDock/SCRATCH/511022/C8687-P114/C8687-P114.minimised.mol

>  <scratch_subdir>  (331) 
/opt/xchem-fragalysis-2/maxwin/BulkDock/SCRATCH/511022/C8687-P114

>  <fragmenstein_runtime>  (331) 
26.292776346206665

>  <fragmenstein_outcome>  (331) 
too moved

>  <fragmenstein_mode>  (331) 
expansion

>  <fragmenstein_error>  (331) 


$$$$
C8687-P107
     RDKit          3D

 38 41  0  0  0  0  0  0  0  0999 V2000
   -0.3923   -8.7549   20.7520 C   0  0  0  0  0  0  0  0  0  0  0  0
    0.1911   -8.1953   21.8296 C   0  0  0  0  0  0  0  0  0  0  0  0
   -0.7340   -8.2659   22.8007 N   0  0  0  0  0  0  0  0  0  0  0  0
   -1.7636   -9.0511   22.3578 C   0  0  0  0  0  0  0  0  0  0  0  0
   -3.0730   -9.4185   23.1254 C   0  0  0  0  0  0  0  0  0  0  0  0
   -3.3413  -10.3690   24.7037 N   0  0  0  0  0  0  0  0  0  0  0  0
   -3.3769   -9.9097   26.1624 C   0  0  0  0  0  0  0  0  0  0  0  0
   -3.3740  -11.1848   27.3286 C   0  0  0  0  0  0  0  0  0  0  0  0
   -4.5729  -12.0905   27.2585 N   0  0  0  0  0  0  0  0  0  0  0  0
   -4.8600  -13.3456   27.8866 C   0  0  0  0  0  0  0  0  0  0  0  0
   -4.0217  -13.8949   29.0235 C   0  0  0  0  0  0  0  0  0  0  0  0
   -4.3716  -15.0757   29.5688 C   0  0  0  0  0  0  0  0  0  0  0  0
   -5.4637  -15.7640   29.0717 N   0  0  0  0  0  0  0  0  0  0  0  0
   -5.9856  -16.9833   29.4181 C   0  0  0  0  0  0  0  0  0  0  0  0
   -7.0039  -17.1939   28.5224 C   0  0  0  0  0  0  0  0  0  0  0  0
   -7.1624  -16.1199   27.6885 N   0  0  0  0  0  0  0  0  0  0  0  0
   -6.2161  -15.2584   28.0230 C   0  0  0  0  0  0  0  0  0  0  0  0
   -5.9078  -14.0455   27.4655 N   0  0  0  0  0  0  0  0  0  0  0  0
   -5.3432  -11.7293   26.0910 C   0  0  0  0  0  0  0  0  0  0  0  0
   -4.3603  -11.6123   24.8821 C   0  0  0  0  0  0  0  0  0  0  0  0
   -1.5731   -9.3345   21.0828 N   0  0  0  0  0  0  0  0  0  0  0  0
   -0.0728   -8.5927   19.7347 H   0  0  0  0  0  0  0  0  0  0  0  0
    1.0221   -7.5628   21.9021 H   0  0  0  0  0  0  0  0  0  0  0  0
   -0.6786   -7.7932   23.6942 H   0  0  0  0  0  0  0  0  0  0  0  0
   -3.7768   -8.6331   22.8148 H   0  0  0  0  0  0  0  0  0  0  0  0
   -3.4334  -10.1242   22.3463 H   0  0  0  0  0  0  0  0  0  0  0  0
   -2.5604   -9.2347   26.4296 H   0  0  0  0  0  0  0  0  0  0  0  0
   -4.2892   -9.3371   26.3677 H   0  0  0  0  0  0  0  0  0  0  0  0
   -2.4625  -11.7728   27.1770 H   0  0  0  0  0  0  0  0  0  0  0  0
   -3.3419  -10.7138   28.3164 H   0  0  0  0  0  0  0  0  0  0  0  0
   -3.1780  -13.3140   29.3656 H   0  0  0  0  0  0  0  0  0  0  0  0
   -3.8277  -15.5325   30.3851 H   0  0  0  0  0  0  0  0  0  0  0  0
   -5.5827  -17.5932   30.2152 H   0  0  0  0  0  0  0  0  0  0  0  0
   -7.6265  -18.0667   28.4231 H   0  0  0  0  0  0  0  0  0  0  0  0
   -5.9098  -10.8144   26.2912 H   0  0  0  0  0  0  0  0  0  0  0  0
   -6.1051  -12.4736   25.8310 H   0  0  0  0  0  0  0  0  0  0  0  0
   -5.1563  -11.7132   24.1591 H   0  0  0  0  0  0  0  0  0  0  0  0
   -3.7490  -12.5142   24.9259 H   0  0  0  0  0  0  0  0  0  0  0  0
  1  2  2  0
  2  3  1  0
  3  4  1  0
  4  5  1  0
  5  6  1  0
  6  7  1  0
  7  8  1  0
  8  9  1  0
  9 10  1  0
 10 11  1  0
 11 12  2  0
 12 13  1  0
 13 14  1  0
 14 15  2  0
 15 16  1  0
 16 17  2  0
 17 18  1  0
  9 19  1  0
 19 20  1  0
  4 21  2  0
 21  1  1  0
 20  6  1  0
 18 10  2  0
 17 13  1  0
  1 22  1  0
  2 23  1  0
  3 24  1  0
  5 25  1  0
  5 26  1  0
  7 27  1  0
  7 28  1  0
  8 29  1  0
  8 30  1  0
 11 31  1  0
 12 32  1  0
 14 33  1  0
 15 34  1  0
 19 35  1  0
 19 36  1  0
 20 37  1  0
 20 38  1  0
M  END
>  <Energy>  (332) 
211.52415149501107

>  <compound_id>  (332) 
8687

>  <target_id>  (332) 
1

>  <reference_id>  (332) 
107

>  <inspiration_ids>  (332) 
[114, 107]

>  <energy_score>  (332) 
98.50007692169629

>  <distance_score>  (332) 
13.110213244420653

>  <path>  (332) 
/opt/xchem-fragalysis-2/maxwin/BulkDock/SCRATCH/511022/C8687-P107/C8687-P107.minimised.mol

>  <scratch_subdir>  (332) 
/opt/xchem-fragalysis-2/maxwin/BulkDock/SCRATCH/511022/C8687-P107

>  <fragmenstein_runtime>  (332) 
23.42685294151306

>  <fragmenstein_outcome>  (332) 
too moved

>  <fragmenstein_mode>  (332) 
expansion

>  <fragmenstein_error>  (332) 


$$$$
C8688-P114
     RDKit          3D

 33 36  0  0  0  0  0  0  0  0999 V2000
    3.5341   -4.3578   12.0986 C   0  0  0  0  0  0  0  0  0  0  0  0
    3.8529   -3.5840   13.1881 C   0  0  0  0  0  0  0  0  0  0  0  0
    3.5209   -4.3965   14.6516 S   0  0  0  0  0  0  0  0  0  0  0  0
    2.8878   -5.7682   13.8683 C   0  0  0  0  0  0  0  0  0  0  0  0
    1.9228   -6.8871   14.4975 C   0  0  0  0  0  0  0  0  0  0  0  0
    0.7508   -6.9856   13.8177 C   0  0  0  0  0  0  0  0  0  0  0  0
   -0.1259   -7.4935   14.7229 N   0  0  0  0  0  0  0  0  0  0  0  0
    0.4765   -8.0578   16.0182 C   0  0  0  0  0  0  0  0  0  0  0  0
   -0.3920   -8.4975   17.6590 C   0  0  0  0  0  0  0  0  0  0  0  0
   -1.7931   -9.5329   17.9819 N   0  0  0  0  0  0  0  0  0  0  0  0
   -2.5458  -10.0323   19.1233 C   0  0  0  0  0  0  0  0  0  0  0  0
   -2.6979   -9.3826   20.4744 C   0  0  0  0  0  0  0  0  0  0  0  0
   -3.6232   -9.8492   21.3390 C   0  0  0  0  0  0  0  0  0  0  0  0
   -4.3307  -11.0011   21.0419 N   0  0  0  0  0  0  0  0  0  0  0  0
   -5.2897  -11.6796   21.7667 C   0  0  0  0  0  0  0  0  0  0  0  0
   -5.5361  -12.8221   21.0450 C   0  0  0  0  0  0  0  0  0  0  0  0
   -4.7756  -12.8329   19.8951 N   0  0  0  0  0  0  0  0  0  0  0  0
   -4.0712  -11.7062   19.8758 C   0  0  0  0  0  0  0  0  0  0  0  0
   -3.2098  -11.1843   18.9151 N   0  0  0  0  0  0  0  0  0  0  0  0
    1.7736   -7.6013   15.7575 N   0  0  0  0  0  0  0  0  0  0  0  0
    2.9930   -5.6168   12.4904 C   0  0  0  0  0  0  0  0  0  0  0  0
    3.6752   -4.0378   11.0734 H   0  0  0  0  0  0  0  0  0  0  0  0
    4.2844   -2.5920   13.1962 H   0  0  0  0  0  0  0  0  0  0  0  0
    0.4080   -6.6217   12.8605 H   0  0  0  0  0  0  0  0  0  0  0  0
   -1.0191   -7.8412   14.4367 H   0  0  0  0  0  0  0  0  0  0  0  0
    0.5123   -8.8558   18.1544 H   0  0  0  0  0  0  0  0  0  0  0  0
   -0.5910   -7.6937   18.3302 H   0  0  0  0  0  0  0  0  0  0  0  0
   -1.6228  -10.4249   17.5499 H   0  0  0  0  0  0  0  0  0  0  0  0
   -2.0559   -8.5517   20.6964 H   0  0  0  0  0  0  0  0  0  0  0  0
   -3.8172   -9.3784   22.2932 H   0  0  0  0  0  0  0  0  0  0  0  0
   -5.6727  -11.3101   22.7057 H   0  0  0  0  0  0  0  0  0  0  0  0
   -6.2109  -13.6359   21.2763 H   0  0  0  0  0  0  0  0  0  0  0  0
    2.6446   -6.3610   11.7840 H   0  0  0  0  0  0  0  0  0  0  0  0
  1  2  2  0
  2  3  1  0
  3  4  1  0
  4  5  1  0
  5  6  2  0
  6  7  1  0
  7  8  1  0
  8  9  1  0
  9 10  1  0
 10 11  1  0
 11 12  1  0
 12 13  2  0
 13 14  1  0
 14 15  1  0
 15 16  2  0
 16 17  1  0
 17 18  2  0
 18 19  1  0
  8 20  2  0
  4 21  2  0
 21  1  1  0
 20  5  1  0
 19 11  2  0
 18 14  1  0
  1 22  1  0
  2 23  1  0
  6 24  1  0
  7 25  1  0
  9 26  1  0
  9 27  1  0
 10 28  1  0
 12 29  1  0
 13 30  1  0
 15 31  1  0
 16 32  1  0
 21 33  1  0
M  END
>  <Energy>  (333) 
157.3544638218776

>  <compound_id>  (333) 
8688

>  <target_id>  (333) 
1

>  <reference_id>  (333) 
114

>  <inspiration_ids>  (333) 
[114, 107]

>  <energy_score>  (333) 
85.05248364210524

>  <distance_score>  (333) 
16.502849404714787

>  <path>  (333) 
/opt/xchem-fragalysis-2/maxwin/BulkDock/SCRATCH/511022/C8688-P114/C8688-P114.minimised.mol

>  <scratch_subdir>  (333) 
/opt/xchem-fragalysis-2/maxwin/BulkDock/SCRATCH/511022/C8688-P114

>  <fragmenstein_runtime>  (333) 
11.152389287948608

>  <fragmenstein_outcome>  (333) 
too moved

>  <fragmenstein_mode>  (333) 
expansion

>  <fragmenstein_error>  (333) 


$$$$
C8688-P107
     RDKit          3D

 33 36  0  0  0  0  0  0  0  0999 V2000
    5.2493   -5.3042   15.9712 C   0  0  0  0  0  0  0  0  0  0  0  0
    6.2587   -6.1671   16.3553 C   0  0  0  0  0  0  0  0  0  0  0  0
    5.8485   -6.4683   17.9659 S   0  0  0  0  0  0  0  0  0  0  0  0
    4.3673   -6.9078   17.4098 C   0  0  0  0  0  0  0  0  0  0  0  0
    2.6393   -8.1111   17.6639 C   0  0  0  0  0  0  0  0  0  0  0  0
    1.6990   -7.9568   16.6063 C   0  0  0  0  0  0  0  0  0  0  0  0
    0.4143   -8.2846   17.0113 N   0  0  0  0  0  0  0  0  0  0  0  0
    0.3746   -8.6030   18.3492 C   0  0  0  0  0  0  0  0  0  0  0  0
   -1.2402   -8.9411   19.1874 C   0  0  0  0  0  0  0  0  0  0  0  0
   -2.0880  -10.3179   19.0987 N   0  0  0  0  0  0  0  0  0  0  0  0
   -3.1020  -10.9576   19.9106 C   0  0  0  0  0  0  0  0  0  0  0  0
   -3.5004  -12.3775   19.4248 C   0  0  0  0  0  0  0  0  0  0  0  0
   -4.4740  -13.0645   20.0472 C   0  0  0  0  0  0  0  0  0  0  0  0
   -5.0811  -12.5042   21.1527 N   0  0  0  0  0  0  0  0  0  0  0  0
   -6.0028  -13.0442   22.0231 C   0  0  0  0  0  0  0  0  0  0  0  0
   -6.1253  -12.1177   23.0279 C   0  0  0  0  0  0  0  0  0  0  0  0
   -5.3205  -11.0241   22.7787 N   0  0  0  0  0  0  0  0  0  0  0  0
   -4.6991  -11.2424   21.6242 C   0  0  0  0  0  0  0  0  0  0  0  0
   -3.7245  -10.4725   20.9715 N   0  0  0  0  0  0  0  0  0  0  0  0
    1.7483   -8.6034   18.7388 N   0  0  0  0  0  0  0  0  0  0  0  0
    4.2983   -6.1950   16.0356 C   0  0  0  0  0  0  0  0  0  0  0  0
    5.2185   -4.4272   15.3378 H   0  0  0  0  0  0  0  0  0  0  0  0
    7.2453   -6.2838   15.9820 H   0  0  0  0  0  0  0  0  0  0  0  0
    1.8386   -7.6037   15.5886 H   0  0  0  0  0  0  0  0  0  0  0  0
   -0.4025   -8.2701   16.4140 H   0  0  0  0  0  0  0  0  0  0  0  0
   -1.0496   -8.7379   20.2467 H   0  0  0  0  0  0  0  0  0  0  0  0
   -1.9111   -8.2241   18.7234 H   0  0  0  0  0  0  0  0  0  0  0  0
   -1.3877  -10.9871   18.7934 H   0  0  0  0  0  0  0  0  0  0  0  0
   -2.9812  -12.7641   18.5561 H   0  0  0  0  0  0  0  0  0  0  0  0
   -4.7892  -14.0532   19.7412 H   0  0  0  0  0  0  0  0  0  0  0  0
   -6.4464  -14.0157   21.8633 H   0  0  0  0  0  0  0  0  0  0  0  0
   -6.7406  -12.1671   23.9169 H   0  0  0  0  0  0  0  0  0  0  0  0
    3.4791   -6.2529   15.3151 H   0  0  0  0  0  0  0  0  0  0  0  0
  1  2  2  0
  2  3  1  0
  3  4  1  0
  4  5  1  0
  5  6  2  0
  6  7  1  0
  7  8  1  0
  8  9  1  0
  9 10  1  0
 10 11  1  0
 11 12  1  0
 12 13  2  0
 13 14  1  0
 14 15  1  0
 15 16  2  0
 16 17  1  0
 17 18  2  0
 18 19  1  0
  8 20  2  0
  4 21  2  0
 21  1  1  0
 20  5  1  0
 19 11  2  0
 18 14  1  0
  1 22  1  0
  2 23  1  0
  6 24  1  0
  7 25  1  0
  9 26  1  0
  9 27  1  0
 10 28  1  0
 12 29  1  0
 13 30  1  0
 15 31  1  0
 16 32  1  0
 21 33  1  0
M  END
>  <Energy>  (334) 
214.89154755290681

>  <compound_id>  (334) 
8688

>  <target_id>  (334) 
1

>  <reference_id>  (334) 
107

>  <inspiration_ids>  (334) 
[114, 107]

>  <energy_score>  (334) 
142.5895673731377

>  <distance_score>  (334) 
15.462315268460225

>  <path>  (334) 
/opt/xchem-fragalysis-2/maxwin/BulkDock/SCRATCH/511022/C8688-P107/C8688-P107.minimised.mol

>  <scratch_subdir>  (334) 
/opt/xchem-fragalysis-2/maxwin/BulkDock/SCRATCH/511022/C8688-P107

>  <fragmenstein_runtime>  (334) 
13.253347635269165

>  <fragmenstein_outcome>  (334) 
too moved

>  <fragmenstein_mode>  (334) 
expansion

>  <fragmenstein_error>  (334) 


$$$$
C8683-P114
     RDKit          3D

 29 31  0  0  0  0  0  0  0  0999 V2000
   -9.0239  -13.2748   25.1955 F   0  0  0  0  0  0  0  0  0  0  0  0
  -10.1574  -13.8234   24.6814 C   0  0  0  0  0  0  0  0  0  0  0  0
  -11.1493  -12.9177   24.8852 F   0  0  0  0  0  0  0  0  0  0  0  0
  -10.0128  -14.1067   23.2625 N   0  0  0  0  0  0  0  0  0  0  0  0
   -8.8947  -13.8278   22.4973 C   0  0  0  0  0  0  0  0  0  0  0  0
   -9.2128  -14.2659   21.2396 C   0  0  0  0  0  0  0  0  0  0  0  0
  -10.5008  -14.7873   21.2240 N   0  0  0  0  0  0  0  0  0  0  0  0
  -11.0036  -14.6897   22.4567 C   0  0  0  0  0  0  0  0  0  0  0  0
  -12.5511  -14.8973   22.9186 C   0  0  0  0  0  0  0  0  0  0  0  0
  -13.3650  -16.2075   23.0011 N   0  0  0  0  0  0  0  0  0  0  0  0
  -13.2301  -17.1862   24.0018 C   0  0  0  0  0  0  0  0  0  0  0  0
  -13.8205  -18.8888   23.7720 C   0  0  0  0  0  0  0  0  0  0  0  0
  -13.0662  -20.0666   24.1561 C   0  0  0  0  0  0  0  0  0  0  0  0
  -11.7670  -19.8575   25.3274 N   0  0  0  0  0  0  0  0  0  0  0  0
  -12.0717  -20.4546   27.2308 C   0  0  0  0  0  0  0  0  0  0  0  0
  -12.0992  -18.7352   28.3198 C   0  0  0  0  0  0  0  0  0  0  0  0
  -11.1886  -17.4018   27.2613 N   0  0  0  0  0  0  0  0  0  0  0  0
  -11.3663  -17.7493   25.5389 C   0  0  0  0  0  0  0  0  0  0  0  0
  -12.1515  -16.8258   24.7540 N   0  0  0  0  0  0  0  0  0  0  0  0
  -10.3794  -14.7504   25.2142 H   0  0  0  0  0  0  0  0  0  0  0  0
   -8.0109  -13.3645   22.9145 H   0  0  0  0  0  0  0  0  0  0  0  0
   -8.6096  -14.2405   20.3410 H   0  0  0  0  0  0  0  0  0  0  0  0
  -12.6757  -14.3971   23.8849 H   0  0  0  0  0  0  0  0  0  0  0  0
  -13.1080  -14.2756   22.2043 H   0  0  0  0  0  0  0  0  0  0  0  0
  -13.7041  -16.5206   22.0957 H   0  0  0  0  0  0  0  0  0  0  0  0
  -14.6781  -18.9330   23.1101 H   0  0  0  0  0  0  0  0  0  0  0  0
  -13.3181  -21.1014   23.9693 H   0  0  0  0  0  0  0  0  0  0  0  0
  -11.4345  -21.3516   27.3290 H   0  0  0  0  0  0  0  0  0  0  0  0
  -12.5557  -18.2565   29.1317 H   0  0  0  0  0  0  0  0  0  0  0  0
  1  2  1  0
  2  3  1  0
  2  4  1  0
  4  5  1  0
  5  6  2  0
  6  7  1  0
  7  8  2  0
  8  9  1  0
  9 10  1  0
 10 11  1  0
 11 12  1  0
 12 13  2  0
 13 14  1  0
 14 15  1  0
 15 16  2  0
 16 17  1  0
 17 18  2  0
 18 19  1  0
  8  4  1  0
 19 11  2  0
 18 14  1  0
  2 20  1  0
  5 21  1  0
  6 22  1  0
  9 23  1  0
  9 24  1  0
 10 25  1  0
 12 26  1  0
 13 27  1  0
 15 28  1  0
 16 29  1  0
M  END
>  <Energy>  (335) 
792.73715992652762

>  <compound_id>  (335) 
8683

>  <target_id>  (335) 
1

>  <reference_id>  (335) 
114

>  <inspiration_ids>  (335) 
[114, 107]

>  <energy_score>  (335) 
751.1676225103354

>  <distance_score>  (335) 
16.720465418105835

>  <path>  (335) 
/opt/xchem-fragalysis-2/maxwin/BulkDock/SCRATCH/511022/C8683-P114/C8683-P114.minimised.mol

>  <scratch_subdir>  (335) 
/opt/xchem-fragalysis-2/maxwin/BulkDock/SCRATCH/511022/C8683-P114

>  <fragmenstein_runtime>  (335) 
13.588284254074097

>  <fragmenstein_outcome>  (335) 
too moved

>  <fragmenstein_mode>  (335) 
expansion

>  <fragmenstein_error>  (335) 


$$$$
C8683-P107
     RDKit          3D

 29 31  0  0  0  0  0  0  0  0999 V2000
    5.8871   -5.8438   15.8970 F   0  0  0  0  0  0  0  0  0  0  0  0
    4.7362   -5.3240   16.3991 C   0  0  0  0  0  0  0  0  0  0  0  0
    3.8253   -5.9534   15.6050 F   0  0  0  0  0  0  0  0  0  0  0  0
    4.8338   -5.5191   17.9534 N   0  0  0  0  0  0  0  0  0  0  0  0
    6.0993   -5.8608   18.3068 C   0  0  0  0  0  0  0  0  0  0  0  0
    6.3844   -4.9905   19.3170 C   0  0  0  0  0  0  0  0  0  0  0  0
    5.2317   -4.0529   19.7786 N   0  0  0  0  0  0  0  0  0  0  0  0
    4.1465   -4.5678   19.2606 C   0  0  0  0  0  0  0  0  0  0  0  0
    2.5699   -4.7980   20.3020 C   0  0  0  0  0  0  0  0  0  0  0  0
    1.6335   -6.2857   20.6447 N   0  0  0  0  0  0  0  0  0  0  0  0
    0.7529   -7.3015   21.6875 C   0  0  0  0  0  0  0  0  0  0  0  0
    0.0637   -8.4950   20.9599 C   0  0  0  0  0  0  0  0  0  0  0  0
   -1.0735   -9.0593   21.4066 C   0  0  0  0  0  0  0  0  0  0  0  0
   -1.5789   -8.5913   22.5916 N   0  0  0  0  0  0  0  0  0  0  0  0
   -2.8421   -8.7148   23.1622 C   0  0  0  0  0  0  0  0  0  0  0  0
   -2.7669   -8.0429   24.3607 C   0  0  0  0  0  0  0  0  0  0  0  0
   -1.4952   -7.5051   24.5361 N   0  0  0  0  0  0  0  0  0  0  0  0
   -0.7603   -7.8073   23.4513 C   0  0  0  0  0  0  0  0  0  0  0  0
    0.4774   -7.2589   23.0014 N   0  0  0  0  0  0  0  0  0  0  0  0
    4.6110   -4.2639   16.1808 H   0  0  0  0  0  0  0  0  0  0  0  0
    6.7375   -6.4069   17.6530 H   0  0  0  0  0  0  0  0  0  0  0  0
    7.2862   -4.9455   19.9163 H   0  0  0  0  0  0  0  0  0  0  0  0
    1.8942   -4.0932   19.8032 H   0  0  0  0  0  0  0  0  0  0  0  0
    2.7253   -4.2457   21.2280 H   0  0  0  0  0  0  0  0  0  0  0  0
    1.7679   -6.7978   19.7997 H   0  0  0  0  0  0  0  0  0  0  0  0
    0.4398   -8.6220   19.9636 H   0  0  0  0  0  0  0  0  0  0  0  0
   -1.6572   -9.7537   20.8184 H   0  0  0  0  0  0  0  0  0  0  0  0
   -3.6531   -9.2146   22.6524 H   0  0  0  0  0  0  0  0  0  0  0  0
   -3.5413   -7.8898   25.1015 H   0  0  0  0  0  0  0  0  0  0  0  0
  1  2  1  0
  2  3  1  0
  2  4  1  0
  4  5  1  0
  5  6  2  0
  6  7  1  0
  7  8  2  0
  8  9  1  0
  9 10  1  0
 10 11  1  0
 11 12  1  0
 12 13  2  0
 13 14  1  0
 14 15  1  0
 15 16  2  0
 16 17  1  0
 17 18  2  0
 18 19  1  0
  8  4  1  0
 19 11  2  0
 18 14  1  0
  2 20  1  0
  5 21  1  0
  6 22  1  0
  9 23  1  0
  9 24  1  0
 10 25  1  0
 12 26  1  0
 13 27  1  0
 15 28  1  0
 16 29  1  0
M  END
>  <Energy>  (336) 
273.29879178575135

>  <compound_id>  (336) 
8683

>  <target_id>  (336) 
1

>  <reference_id>  (336) 
107

>  <inspiration_ids>  (336) 
[114, 107]

>  <energy_score>  (336) 
231.72925436956263

>  <distance_score>  (336) 
17.384743578930404

>  <path>  (336) 
/opt/xchem-fragalysis-2/maxwin/BulkDock/SCRATCH/511022/C8683-P107/C8683-P107.minimised.mol

>  <scratch_subdir>  (336) 
/opt/xchem-fragalysis-2/maxwin/BulkDock/SCRATCH/511022/C8683-P107

>  <fragmenstein_runtime>  (336) 
10.83085560798645

>  <fragmenstein_outcome>  (336) 
too moved

>  <fragmenstein_mode>  (336) 
expansion

>  <fragmenstein_error>  (336) 


$$$$
C8689-P114
     RDKit          3D

 29 31  0  0  0  0  0  0  0  0999 V2000
   -2.8033   -7.9739   24.5927 C   0  0  0  0  0  0  0  0  0  0  0  0
   -3.6726   -8.7424   25.3374 C   0  0  0  0  0  0  0  0  0  0  0  0
   -4.3809   -9.5057   24.4377 N   0  0  0  0  0  0  0  0  0  0  0  0
   -5.5708  -10.3426   24.7140 C   0  0  0  0  0  0  0  0  0  0  0  0
   -5.4231  -11.6431   25.5914 C   0  0  0  0  0  0  0  0  0  0  0  0
   -6.4103  -12.7171   25.2576 N   0  0  0  0  0  0  0  0  0  0  0  0
   -7.2231  -13.4534   26.1240 C   0  0  0  0  0  0  0  0  0  0  0  0
   -8.0188  -14.5993   25.5146 C   0  0  0  0  0  0  0  0  0  0  0  0
   -8.9007  -15.2323   26.3000 C   0  0  0  0  0  0  0  0  0  0  0  0
   -9.0209  -14.8542   27.6183 N   0  0  0  0  0  0  0  0  0  0  0  0
   -9.8900  -15.2889   28.5809 C   0  0  0  0  0  0  0  0  0  0  0  0
   -9.6300  -14.4983   29.6742 C   0  0  0  0  0  0  0  0  0  0  0  0
   -8.5885  -13.6476   29.4206 N   0  0  0  0  0  0  0  0  0  0  0  0
   -8.2399  -13.8445   28.1626 C   0  0  0  0  0  0  0  0  0  0  0  0
   -7.3298  -13.1573   27.3965 N   0  0  0  0  0  0  0  0  0  0  0  0
   -3.9225   -9.1239   23.1927 C   0  0  0  0  0  0  0  0  0  0  0  0
   -2.9009   -8.2991   23.2704 N   0  0  0  0  0  0  0  0  0  0  0  0
   -2.0975   -7.2325   24.9449 H   0  0  0  0  0  0  0  0  0  0  0  0
   -3.8754   -8.7755   26.3991 H   0  0  0  0  0  0  0  0  0  0  0  0
   -6.2897   -9.6717   25.2018 H   0  0  0  0  0  0  0  0  0  0  0  0
   -6.0059  -10.5945   23.7404 H   0  0  0  0  0  0  0  0  0  0  0  0
   -4.4221  -12.0643   25.4481 H   0  0  0  0  0  0  0  0  0  0  0  0
   -5.5052  -11.3667   26.6483 H   0  0  0  0  0  0  0  0  0  0  0  0
   -6.3225  -13.0410   24.2999 H   0  0  0  0  0  0  0  0  0  0  0  0
   -7.8792  -14.8325   24.4689 H   0  0  0  0  0  0  0  0  0  0  0  0
   -9.5470  -16.0184   25.9502 H   0  0  0  0  0  0  0  0  0  0  0  0
  -10.6079  -16.0735   28.4127 H   0  0  0  0  0  0  0  0  0  0  0  0
  -10.1231  -14.5021   30.6389 H   0  0  0  0  0  0  0  0  0  0  0  0
   -4.3593   -9.4966   22.2740 H   0  0  0  0  0  0  0  0  0  0  0  0
  1  2  2  0
  2  3  1  0
  3  4  1  0
  4  5  1  0
  5  6  1  0
  6  7  1  0
  7  8  1  0
  8  9  2  0
  9 10  1  0
 10 11  1  0
 11 12  2  0
 12 13  1  0
 13 14  2  0
 14 15  1  0
  3 16  1  0
 16 17  2  0
 17  1  1  0
 15  7  2  0
 14 10  1  0
  1 18  1  0
  2 19  1  0
  4 20  1  0
  4 21  1  0
  5 22  1  0
  5 23  1  0
  6 24  1  0
  8 25  1  0
  9 26  1  0
 11 27  1  0
 12 28  1  0
 16 29  1  0
M  END
>  <Energy>  (337) 
6.3113314897040214

>  <compound_id>  (337) 
8689

>  <target_id>  (337) 
1

>  <reference_id>  (337) 
114

>  <inspiration_ids>  (337) 
[114, 107]

>  <energy_score>  (337) 
-17.185114370187137

>  <distance_score>  (337) 
14.225210302343186

>  <path>  (337) 
/opt/xchem-fragalysis-2/maxwin/BulkDock/SCRATCH/511022/C8689-P114/C8689-P114.minimised.mol

>  <scratch_subdir>  (337) 
/opt/xchem-fragalysis-2/maxwin/BulkDock/SCRATCH/511022/C8689-P114

>  <fragmenstein_runtime>  (337) 
13.235044002532959

>  <fragmenstein_outcome>  (337) 
too moved

>  <fragmenstein_mode>  (337) 
expansion

>  <fragmenstein_error>  (337) 


$$$$
C8689-P107
     RDKit          3D

 29 31  0  0  0  0  0  0  0  0999 V2000
    4.1310   -7.2639   17.9223 C   0  0  0  0  0  0  0  0  0  0  0  0
    2.8466   -8.4103   17.7714 C   0  0  0  0  0  0  0  0  0  0  0  0
    3.5500   -9.6970   17.6264 N   0  0  0  0  0  0  0  0  0  0  0  0
    3.4371  -11.5987   17.4555 C   0  0  0  0  0  0  0  0  0  0  0  0
    3.7191  -13.2797   18.6032 C   0  0  0  0  0  0  0  0  0  0  0  0
    2.4693  -14.5847   19.2926 N   0  0  0  0  0  0  0  0  0  0  0  0
    1.8233  -15.4080   20.8206 C   0  0  0  0  0  0  0  0  0  0  0  0
    0.4413  -16.5485   20.7660 C   0  0  0  0  0  0  0  0  0  0  0  0
   -0.2082  -17.0451   21.8262 C   0  0  0  0  0  0  0  0  0  0  0  0
    0.2661  -16.7346   23.0578 N   0  0  0  0  0  0  0  0  0  0  0  0
   -0.2420  -17.0836   24.2854 C   0  0  0  0  0  0  0  0  0  0  0  0
    0.6643  -16.5841   25.1802 C   0  0  0  0  0  0  0  0  0  0  0  0
    1.7066  -15.9725   24.5149 N   0  0  0  0  0  0  0  0  0  0  0  0
    1.4554  -16.0333   23.2095 C   0  0  0  0  0  0  0  0  0  0  0  0
    2.2046  -15.5021   22.1344 N   0  0  0  0  0  0  0  0  0  0  0  0
    4.7908   -9.1297   18.3961 C   0  0  0  0  0  0  0  0  0  0  0  0
    5.1408   -7.8410   18.4607 N   0  0  0  0  0  0  0  0  0  0  0  0
    4.4526   -6.3542   17.3959 H   0  0  0  0  0  0  0  0  0  0  0  0
    1.8594   -8.3059   17.3586 H   0  0  0  0  0  0  0  0  0  0  0  0
    3.5798  -11.5531   16.3801 H   0  0  0  0  0  0  0  0  0  0  0  0
    2.6476  -11.1600   17.9191 H   0  0  0  0  0  0  0  0  0  0  0  0
    4.3849  -13.0052   19.4370 H   0  0  0  0  0  0  0  0  0  0  0  0
    4.1386  -14.1207   18.0515 H   0  0  0  0  0  0  0  0  0  0  0  0
    2.1783  -15.0606   18.4344 H   0  0  0  0  0  0  0  0  0  0  0  0
    0.1368  -16.9711   19.8401 H   0  0  0  0  0  0  0  0  0  0  0  0
   -1.0417  -17.7294   21.7517 H   0  0  0  0  0  0  0  0  0  0  0  0
   -1.1613  -17.6361   24.4041 H   0  0  0  0  0  0  0  0  0  0  0  0
    0.6470  -16.6338   26.2609 H   0  0  0  0  0  0  0  0  0  0  0  0
    5.4485   -9.9229   18.7906 H   0  0  0  0  0  0  0  0  0  0  0  0
  1  2  2  0
  2  3  1  0
  3  4  1  0
  4  5  1  0
  5  6  1  0
  6  7  1  0
  7  8  1  0
  8  9  2  0
  9 10  1  0
 10 11  1  0
 11 12  2  0
 12 13  1  0
 13 14  2  0
 14 15  1  0
  3 16  1  0
 16 17  2  0
 17  1  1  0
 15  7  2  0
 14 10  1  0
  1 18  1  0
  2 19  1  0
  4 20  1  0
  4 21  1  0
  5 22  1  0
  5 23  1  0
  6 24  1  0
  8 25  1  0
  9 26  1  0
 11 27  1  0
 12 28  1  0
 16 29  1  0
M  END
>  <Energy>  (338) 
485.22995415030425

>  <compound_id>  (338) 
8689

>  <target_id>  (338) 
1

>  <reference_id>  (338) 
107

>  <inspiration_ids>  (338) 
[114, 107]

>  <energy_score>  (338) 
461.73350829041567

>  <distance_score>  (338) 
14.894949391209613

>  <path>  (338) 
/opt/xchem-fragalysis-2/maxwin/BulkDock/SCRATCH/511022/C8689-P107/C8689-P107.minimised.mol

>  <scratch_subdir>  (338) 
/opt/xchem-fragalysis-2/maxwin/BulkDock/SCRATCH/511022/C8689-P107

>  <fragmenstein_runtime>  (338) 
10.052256345748901

>  <fragmenstein_outcome>  (338) 
too moved

>  <fragmenstein_mode>  (338) 
expansion

>  <fragmenstein_error>  (338) 


$$$$
C8690-P114
     RDKit          3D

 34 36  0  0  0  0  0  0  0  0999 V2000
   -1.2502   -9.7647   21.7736 C   0  0  0  0  0  0  0  0  0  0  0  0
    0.2179  -10.4012   21.6666 C   0  0  0  0  0  0  0  0  0  0  0  0
    0.8058  -11.7036   22.7759 N   0  0  0  0  0  0  0  0  0  0  0  0
    2.3949  -12.2513   23.1419 C   0  0  0  0  0  0  0  0  0  0  0  0
    3.4138  -11.7872   22.7477 O   0  0  0  0  0  0  0  0  0  0  0  0
    2.0755  -13.8542   24.2179 C   0  0  0  0  0  0  0  0  0  0  0  0
    3.0087  -14.6386   25.1193 C   0  0  0  0  0  0  0  0  0  0  0  0
    2.4907  -15.6159   25.9062 C   0  0  0  0  0  0  0  0  0  0  0  0
    1.1501  -15.9657   25.8203 N   0  0  0  0  0  0  0  0  0  0  0  0
    0.3842  -16.8507   26.5476 C   0  0  0  0  0  0  0  0  0  0  0  0
   -0.8750  -16.7721   26.0004 C   0  0  0  0  0  0  0  0  0  0  0  0
   -0.8867  -15.8819   24.9526 N   0  0  0  0  0  0  0  0  0  0  0  0
    0.3493  -15.4046   24.8500 C   0  0  0  0  0  0  0  0  0  0  0  0
    0.8733  -14.4484   24.0078 N   0  0  0  0  0  0  0  0  0  0  0  0
    1.0935   -9.3525   21.1552 C   0  0  0  0  0  0  0  0  0  0  0  0
    1.2721   -8.3747   21.9985 N   0  0  0  0  0  0  0  0  0  0  0  0
    0.6544   -7.4575   21.3699 C   0  0  0  0  0  0  0  0  0  0  0  0
    0.2437   -7.9224   20.1240 C   0  0  0  0  0  0  0  0  0  0  0  0
    1.1032   -8.8431   19.8566 N   0  0  0  0  0  0  0  0  0  0  0  0
    1.7246   -8.8725   18.5255 C   0  0  0  0  0  0  0  0  0  0  0  0
   -2.0285  -10.5049   21.5671 H   0  0  0  0  0  0  0  0  0  0  0  0
   -1.4440   -9.1131   22.6150 H   0  0  0  0  0  0  0  0  0  0  0  0
   -1.4941   -9.1267   20.9191 H   0  0  0  0  0  0  0  0  0  0  0  0
   -0.2400  -10.9098   20.8613 H   0  0  0  0  0  0  0  0  0  0  0  0
    0.1430  -12.3288   23.1691 H   0  0  0  0  0  0  0  0  0  0  0  0
    4.0556  -14.4049   25.1580 H   0  0  0  0  0  0  0  0  0  0  0  0
    3.0947  -16.1649   26.6167 H   0  0  0  0  0  0  0  0  0  0  0  0
    0.7914  -17.4263   27.3648 H   0  0  0  0  0  0  0  0  0  0  0  0
   -1.7686  -17.3068   26.2936 H   0  0  0  0  0  0  0  0  0  0  0  0
    0.6226   -6.5080   21.8826 H   0  0  0  0  0  0  0  0  0  0  0  0
   -0.3129   -7.7039   19.2480 H   0  0  0  0  0  0  0  0  0  0  0  0
    0.9389   -8.7209   17.7837 H   0  0  0  0  0  0  0  0  0  0  0  0
    2.3865   -8.0458   18.3644 H   0  0  0  0  0  0  0  0  0  0  0  0
    2.3161   -9.7245   18.2760 H   0  0  0  0  0  0  0  0  0  0  0  0
  1  2  1  0
  2  3  1  0
  3  4  1  0
  4  5  2  0
  4  6  1  0
  6  7  1  0
  7  8  2  0
  8  9  1  0
  9 10  1  0
 10 11  2  0
 11 12  1  0
 12 13  2  0
 13 14  1  0
  2 15  1  0
 15 16  2  0
 16 17  1  0
 17 18  2  0
 18 19  1  0
 19 20  1  0
 14  6  2  0
 19 15  1  0
 13  9  1  0
  1 21  1  0
  1 22  1  0
  1 23  1  0
  2 24  1  0
  3 25  1  0
  7 26  1  0
  8 27  1  0
 10 28  1  0
 11 29  1  0
 17 30  1  0
 18 31  1  0
 20 32  1  0
 20 33  1  0
 20 34  1  0
M  END
>  <Energy>  (339) 
295.16945546551921

>  <compound_id>  (339) 
8690

>  <target_id>  (339) 
1

>  <reference_id>  (339) 
114

>  <inspiration_ids>  (339) 
[114, 107]

>  <energy_score>  (339) 
225.19130720356145

>  <distance_score>  (339) 
15.742803270892908

>  <path>  (339) 
/opt/xchem-fragalysis-2/maxwin/BulkDock/SCRATCH/511022/C8690-P114/C8690-P114.minimised.mol

>  <scratch_subdir>  (339) 
/opt/xchem-fragalysis-2/maxwin/BulkDock/SCRATCH/511022/C8690-P114

>  <fragmenstein_runtime>  (339) 
17.006773233413696

>  <fragmenstein_outcome>  (339) 
too moved

>  <fragmenstein_mode>  (339) 
expansion

>  <fragmenstein_error>  (339) 


$$$$
C8690-P107
     RDKit          3D

 34 36  0  0  0  0  0  0  0  0999 V2000
    1.4770  -19.6273   17.0080 C   0  0  0  0  0  0  0  0  0  0  0  0
    2.1989  -19.2564   18.3034 C   0  0  0  0  0  0  0  0  0  0  0  0
    1.2081  -19.2055   19.4194 N   0  0  0  0  0  0  0  0  0  0  0  0
    0.9714  -20.1190   20.5227 C   0  0  0  0  0  0  0  0  0  0  0  0
    1.5659  -21.1063   20.8631 O   0  0  0  0  0  0  0  0  0  0  0  0
   -0.3228  -19.9193   21.4084 C   0  0  0  0  0  0  0  0  0  0  0  0
   -0.0846  -19.9191   22.9074 C   0  0  0  0  0  0  0  0  0  0  0  0
   -1.1519  -20.1235   23.6995 C   0  0  0  0  0  0  0  0  0  0  0  0
   -2.4003  -20.2676   23.1212 N   0  0  0  0  0  0  0  0  0  0  0  0
   -3.6150  -20.5492   23.6968 C   0  0  0  0  0  0  0  0  0  0  0  0
   -4.4952  -20.6051   22.6437 C   0  0  0  0  0  0  0  0  0  0  0  0
   -3.8641  -20.3290   21.4598 N   0  0  0  0  0  0  0  0  0  0  0  0
   -2.5857  -20.1568   21.7412 C   0  0  0  0  0  0  0  0  0  0  0  0
   -1.5198  -19.9832   20.8751 N   0  0  0  0  0  0  0  0  0  0  0  0
    3.1512  -18.0588   18.0635 C   0  0  0  0  0  0  0  0  0  0  0  0
    2.8532  -16.7721   18.0261 N   0  0  0  0  0  0  0  0  0  0  0  0
    4.0308  -16.0896   17.8896 C   0  0  0  0  0  0  0  0  0  0  0  0
    5.0790  -16.9479   17.7020 C   0  0  0  0  0  0  0  0  0  0  0  0
    4.5138  -18.1914   17.8041 N   0  0  0  0  0  0  0  0  0  0  0  0
    5.2418  -19.4343   17.7078 C   0  0  0  0  0  0  0  0  0  0  0  0
    0.9206  -20.5634   17.1296 H   0  0  0  0  0  0  0  0  0  0  0  0
    0.7560  -18.8583   16.7155 H   0  0  0  0  0  0  0  0  0  0  0  0
    2.1826  -19.7587   16.1806 H   0  0  0  0  0  0  0  0  0  0  0  0
    2.8304  -20.1135   18.5668 H   0  0  0  0  0  0  0  0  0  0  0  0
    0.4541  -18.5242   19.3853 H   0  0  0  0  0  0  0  0  0  0  0  0
    0.9302  -19.8178   23.2683 H   0  0  0  0  0  0  0  0  0  0  0  0
   -1.0846  -20.1901   24.7773 H   0  0  0  0  0  0  0  0  0  0  0  0
   -3.7307  -20.7031   24.7589 H   0  0  0  0  0  0  0  0  0  0  0  0
   -5.5512  -20.8333   22.6421 H   0  0  0  0  0  0  0  0  0  0  0  0
    4.0492  -15.0144   17.9905 H   0  0  0  0  0  0  0  0  0  0  0  0
    6.1387  -16.7842   17.5706 H   0  0  0  0  0  0  0  0  0  0  0  0
    5.2459  -19.9091   18.6920 H   0  0  0  0  0  0  0  0  0  0  0  0
    4.7510  -20.0715   16.9682 H   0  0  0  0  0  0  0  0  0  0  0  0
    6.2682  -19.2323   17.3903 H   0  0  0  0  0  0  0  0  0  0  0  0
  1  2  1  0
  2  3  1  0
  3  4  1  0
  4  5  2  0
  4  6  1  0
  6  7  1  0
  7  8  2  0
  8  9  1  0
  9 10  1  0
 10 11  2  0
 11 12  1  0
 12 13  2  0
 13 14  1  0
  2 15  1  0
 15 16  2  0
 16 17  1  0
 17 18  2  0
 18 19  1  0
 19 20  1  0
 14  6  2  0
 19 15  1  0
 13  9  1  0
  1 21  1  0
  1 22  1  0
  1 23  1  0
  2 24  1  0
  3 25  1  0
  7 26  1  0
  8 27  1  0
 10 28  1  0
 11 29  1  0
 17 30  1  0
 18 31  1  0
 20 32  1  0
 20 33  1  0
 20 34  1  0
M  END
>  <Energy>  (340) 
67.73500031096836

>  <compound_id>  (340) 
8690

>  <target_id>  (340) 
1

>  <reference_id>  (340) 
107

>  <inspiration_ids>  (340) 
[114, 107]

>  <energy_score>  (340) 
-2.243147950986895

>  <distance_score>  (340) 
14.984606629231545

>  <path>  (340) 
/opt/xchem-fragalysis-2/maxwin/BulkDock/SCRATCH/511022/C8690-P107/C8690-P107.minimised.mol

>  <scratch_subdir>  (340) 
/opt/xchem-fragalysis-2/maxwin/BulkDock/SCRATCH/511022/C8690-P107

>  <fragmenstein_runtime>  (340) 
31.890221118927002

>  <fragmenstein_outcome>  (340) 
too moved

>  <fragmenstein_mode>  (340) 
expansion

>  <fragmenstein_error>  (340) 


$$$$
C8681-P114
     RDKit          3D

 37 39  0  0  0  0  0  0  0  0999 V2000
   -0.2786   -8.1615   28.8004 C   0  0  0  0  0  0  0  0  0  0  0  0
   -0.7586   -7.6942   27.5223 N   0  0  0  0  0  0  0  0  0  0  0  0
   -0.0947   -6.8084   26.7097 C   0  0  0  0  0  0  0  0  0  0  0  0
   -0.9015   -6.6659   25.6126 C   0  0  0  0  0  0  0  0  0  0  0  0
   -2.0152   -7.4726   25.7272 N   0  0  0  0  0  0  0  0  0  0  0  0
   -1.9266   -8.1072   26.8932 C   0  0  0  0  0  0  0  0  0  0  0  0
   -2.7413   -9.3790   27.2849 C   0  0  0  0  0  0  0  0  0  0  0  0
   -3.9513   -9.3925   28.2323 C   0  0  0  0  0  0  0  0  0  0  0  0
   -4.4715  -10.7915   28.5243 N   0  0  0  0  0  0  0  0  0  0  0  0
   -4.4770  -11.9885   27.7151 C   0  0  0  0  0  0  0  0  0  0  0  0
   -4.0017  -12.2046   26.6375 O   0  0  0  0  0  0  0  0  0  0  0  0
   -5.1798  -13.2381   28.3984 C   0  0  0  0  0  0  0  0  0  0  0  0
   -5.2775  -14.4930   27.5421 C   0  0  0  0  0  0  0  0  0  0  0  0
   -5.7225  -15.6072   28.1446 C   0  0  0  0  0  0  0  0  0  0  0  0
   -6.0961  -15.5428   29.4741 N   0  0  0  0  0  0  0  0  0  0  0  0
   -6.4783  -16.5412   30.3271 C   0  0  0  0  0  0  0  0  0  0  0  0
   -6.7151  -15.9146   31.5262 C   0  0  0  0  0  0  0  0  0  0  0  0
   -6.5160  -14.5607   31.4177 N   0  0  0  0  0  0  0  0  0  0  0  0
   -6.0811  -14.3438   30.1903 C   0  0  0  0  0  0  0  0  0  0  0  0
   -5.6023  -13.1724   29.6356 N   0  0  0  0  0  0  0  0  0  0  0  0
   -5.0800   -8.5634   27.6324 C   0  0  0  0  0  0  0  0  0  0  0  0
   -6.0260   -8.9686   26.9763 O   0  0  0  0  0  0  0  0  0  0  0  0
   -4.9524   -7.2482   27.9065 O   0  0  0  0  0  0  0  0  0  0  0  0
    0.1422   -9.1607   28.6643 H   0  0  0  0  0  0  0  0  0  0  0  0
   -1.1149   -8.1867   29.5032 H   0  0  0  0  0  0  0  0  0  0  0  0
    0.4893   -7.4779   29.1714 H   0  0  0  0  0  0  0  0  0  0  0  0
    0.8561   -6.3686   26.9758 H   0  0  0  0  0  0  0  0  0  0  0  0
   -0.7450   -6.0353   24.7504 H   0  0  0  0  0  0  0  0  0  0  0  0
   -3.0970   -9.7880   26.3287 H   0  0  0  0  0  0  0  0  0  0  0  0
   -2.0263  -10.1013   27.7012 H   0  0  0  0  0  0  0  0  0  0  0  0
   -3.6916   -8.9745   29.2109 H   0  0  0  0  0  0  0  0  0  0  0  0
   -4.9049  -10.9971   29.4248 H   0  0  0  0  0  0  0  0  0  0  0  0
   -4.9531  -14.4527   26.5105 H   0  0  0  0  0  0  0  0  0  0  0  0
   -5.7881  -16.5671   27.6501 H   0  0  0  0  0  0  0  0  0  0  0  0
   -6.5122  -17.5813   30.0361 H   0  0  0  0  0  0  0  0  0  0  0  0
   -7.0080  -16.3653   32.4665 H   0  0  0  0  0  0  0  0  0  0  0  0
   -5.6784   -6.8279   27.3975 H   0  0  0  0  0  0  0  0  0  0  0  0
  1  2  1  0
  2  3  1  0
  3  4  2  0
  4  5  1  0
  5  6  2  0
  6  7  1  0
  7  8  1  0
  8  9  1  0
  9 10  1  0
 10 11  2  0
 10 12  1  0
 12 13  1  0
 13 14  2  0
 14 15  1  0
 15 16  1  0
 16 17  2  0
 17 18  1  0
 18 19  2  0
 19 20  1  0
  8 21  1  0
 21 22  2  0
 21 23  1  0
  6  2  1  0
 20 12  2  0
 19 15  1  0
  1 24  1  0
  1 25  1  0
  1 26  1  0
  3 27  1  0
  4 28  1  0
  7 29  1  0
  7 30  1  0
  8 31  1  0
  9 32  1  0
 13 33  1  0
 14 34  1  0
 16 35  1  0
 17 36  1  0
 23 37  1  0
M  END
>  <Energy>  (341) 
73.344472520290921

>  <compound_id>  (341) 
8681

>  <target_id>  (341) 
1

>  <reference_id>  (341) 
114

>  <inspiration_ids>  (341) 
[114, 107]

>  <energy_score>  (341) 
-22.864772349995064

>  <distance_score>  (341) 
13.857704207032688

>  <path>  (341) 
/opt/xchem-fragalysis-2/maxwin/BulkDock/SCRATCH/511022/C8681-P114/C8681-P114.minimised.mol

>  <scratch_subdir>  (341) 
/opt/xchem-fragalysis-2/maxwin/BulkDock/SCRATCH/511022/C8681-P114

>  <fragmenstein_runtime>  (341) 
28.71858859062195

>  <fragmenstein_outcome>  (341) 
too moved

>  <fragmenstein_mode>  (341) 
expansion

>  <fragmenstein_error>  (341) 


$$$$
C8681-P107
     RDKit          3D

 37 39  0  0  0  0  0  0  0  0999 V2000
   -1.0755   -9.1767   21.4652 C   0  0  0  0  0  0  0  0  0  0  0  0
   -1.2091   -9.0371   20.0348 N   0  0  0  0  0  0  0  0  0  0  0  0
   -0.1700   -8.3559   19.4083 C   0  0  0  0  0  0  0  0  0  0  0  0
   -0.4084   -8.5280   18.0803 C   0  0  0  0  0  0  0  0  0  0  0  0
   -1.6590   -9.0382   17.8981 N   0  0  0  0  0  0  0  0  0  0  0  0
   -1.8673   -9.7235   18.9853 C   0  0  0  0  0  0  0  0  0  0  0  0
   -2.1094  -11.2573   18.7326 C   0  0  0  0  0  0  0  0  0  0  0  0
   -1.9945  -12.1065   19.9560 C   0  0  0  0  0  0  0  0  0  0  0  0
   -2.6303  -13.3811   20.3398 N   0  0  0  0  0  0  0  0  0  0  0  0
   -2.2496  -15.0470   19.9328 C   0  0  0  0  0  0  0  0  0  0  0  0
   -1.3248  -15.4665   19.3195 O   0  0  0  0  0  0  0  0  0  0  0  0
   -3.4656  -16.4727   20.3316 C   0  0  0  0  0  0  0  0  0  0  0  0
   -5.0118  -16.3475   20.5700 C   0  0  0  0  0  0  0  0  0  0  0  0
   -5.6880  -17.3586   21.1347 C   0  0  0  0  0  0  0  0  0  0  0  0
   -5.0188  -18.5150   21.4311 N   0  0  0  0  0  0  0  0  0  0  0  0
   -5.4763  -19.6462   22.0498 C   0  0  0  0  0  0  0  0  0  0  0  0
   -4.3702  -20.4447   22.1726 C   0  0  0  0  0  0  0  0  0  0  0  0
   -3.2802  -19.8482   21.5790 N   0  0  0  0  0  0  0  0  0  0  0  0
   -3.6867  -18.6915   21.0761 C   0  0  0  0  0  0  0  0  0  0  0  0
   -2.9645  -17.7066   20.3992 N   0  0  0  0  0  0  0  0  0  0  0  0
   -3.4310  -11.3242   20.3531 C   0  0  0  0  0  0  0  0  0  0  0  0
   -4.5557  -11.6086   19.9464 O   0  0  0  0  0  0  0  0  0  0  0  0
   -3.3351  -10.3554   21.2782 O   0  0  0  0  0  0  0  0  0  0  0  0
   -0.8028  -10.1885   21.7212 H   0  0  0  0  0  0  0  0  0  0  0  0
   -1.9701   -8.8024   21.9606 H   0  0  0  0  0  0  0  0  0  0  0  0
   -0.2547   -8.5477   21.8283 H   0  0  0  0  0  0  0  0  0  0  0  0
    0.6589   -7.9861   19.9722 H   0  0  0  0  0  0  0  0  0  0  0  0
    0.2005   -8.2496   17.2314 H   0  0  0  0  0  0  0  0  0  0  0  0
   -3.0469  -11.3212   18.1713 H   0  0  0  0  0  0  0  0  0  0  0  0
   -1.3949  -11.6591   18.0386 H   0  0  0  0  0  0  0  0  0  0  0  0
   -1.3846  -11.7407   20.7469 H   0  0  0  0  0  0  0  0  0  0  0  0
   -3.4974  -13.3330   20.7820 H   0  0  0  0  0  0  0  0  0  0  0  0
   -5.6048  -15.5096   20.2461 H   0  0  0  0  0  0  0  0  0  0  0  0
   -6.7524  -17.3303   21.3313 H   0  0  0  0  0  0  0  0  0  0  0  0
   -6.5086  -19.7737   22.3369 H   0  0  0  0  0  0  0  0  0  0  0  0
   -4.2933  -21.4248   22.6259 H   0  0  0  0  0  0  0  0  0  0  0  0
   -4.2806  -10.2477   21.5423 H   0  0  0  0  0  0  0  0  0  0  0  0
  1  2  1  0
  2  3  1  0
  3  4  2  0
  4  5  1  0
  5  6  2  0
  6  7  1  0
  7  8  1  0
  8  9  1  0
  9 10  1  0
 10 11  2  0
 10 12  1  0
 12 13  1  0
 13 14  2  0
 14 15  1  0
 15 16  1  0
 16 17  2  0
 17 18  1  0
 18 19  2  0
 19 20  1  0
  8 21  1  0
 21 22  2  0
 21 23  1  0
  6  2  1  0
 20 12  2  0
 19 15  1  0
  1 24  1  0
  1 25  1  0
  1 26  1  0
  3 27  1  0
  4 28  1  0
  7 29  1  0
  7 30  1  0
  8 31  1  0
  9 32  1  0
 13 33  1  0
 14 34  1  0
 16 35  1  0
 17 36  1  0
 23 37  1  0
M  END
>  <Energy>  (342) 
267.52595076044656

>  <compound_id>  (342) 
8681

>  <target_id>  (342) 
1

>  <reference_id>  (342) 
107

>  <inspiration_ids>  (342) 
[114, 107]

>  <energy_score>  (342) 
171.3167058901654

>  <distance_score>  (342) 
14.213032054863682

>  <path>  (342) 
/opt/xchem-fragalysis-2/maxwin/BulkDock/SCRATCH/511022/C8681-P107/C8681-P107.minimised.mol

>  <scratch_subdir>  (342) 
/opt/xchem-fragalysis-2/maxwin/BulkDock/SCRATCH/511022/C8681-P107

>  <fragmenstein_runtime>  (342) 
32.41210722923279

>  <fragmenstein_outcome>  (342) 
too moved

>  <fragmenstein_mode>  (342) 
expansion

>  <fragmenstein_error>  (342) 


$$$$
C8690-P114
     RDKit          3D

 34 36  0  0  0  0  0  0  0  0999 V2000
   -1.2502   -9.7647   21.7736 C   0  0  0  0  0  0  0  0  0  0  0  0
    0.2179  -10.4012   21.6666 C   0  0  0  0  0  0  0  0  0  0  0  0
    0.8058  -11.7036   22.7759 N   0  0  0  0  0  0  0  0  0  0  0  0
    2.3949  -12.2513   23.1419 C   0  0  0  0  0  0  0  0  0  0  0  0
    3.4138  -11.7872   22.7477 O   0  0  0  0  0  0  0  0  0  0  0  0
    2.0755  -13.8542   24.2179 C   0  0  0  0  0  0  0  0  0  0  0  0
    3.0087  -14.6386   25.1193 C   0  0  0  0  0  0  0  0  0  0  0  0
    2.4907  -15.6159   25.9062 C   0  0  0  0  0  0  0  0  0  0  0  0
    1.1501  -15.9657   25.8203 N   0  0  0  0  0  0  0  0  0  0  0  0
    0.3842  -16.8507   26.5476 C   0  0  0  0  0  0  0  0  0  0  0  0
   -0.8750  -16.7721   26.0004 C   0  0  0  0  0  0  0  0  0  0  0  0
   -0.8867  -15.8819   24.9526 N   0  0  0  0  0  0  0  0  0  0  0  0
    0.3493  -15.4046   24.8500 C   0  0  0  0  0  0  0  0  0  0  0  0
    0.8733  -14.4484   24.0078 N   0  0  0  0  0  0  0  0  0  0  0  0
    1.0935   -9.3525   21.1552 C   0  0  0  0  0  0  0  0  0  0  0  0
    1.2721   -8.3747   21.9985 N   0  0  0  0  0  0  0  0  0  0  0  0
    0.6544   -7.4575   21.3699 C   0  0  0  0  0  0  0  0  0  0  0  0
    0.2437   -7.9224   20.1240 C   0  0  0  0  0  0  0  0  0  0  0  0
    1.1032   -8.8431   19.8566 N   0  0  0  0  0  0  0  0  0  0  0  0
    1.7246   -8.8725   18.5255 C   0  0  0  0  0  0  0  0  0  0  0  0
   -2.0285  -10.5049   21.5671 H   0  0  0  0  0  0  0  0  0  0  0  0
   -1.4440   -9.1131   22.6150 H   0  0  0  0  0  0  0  0  0  0  0  0
   -1.4941   -9.1267   20.9191 H   0  0  0  0  0  0  0  0  0  0  0  0
   -0.2400  -10.9098   20.8613 H   0  0  0  0  0  0  0  0  0  0  0  0
    0.1430  -12.3288   23.1691 H   0  0  0  0  0  0  0  0  0  0  0  0
    4.0556  -14.4049   25.1580 H   0  0  0  0  0  0  0  0  0  0  0  0
    3.0947  -16.1649   26.6167 H   0  0  0  0  0  0  0  0  0  0  0  0
    0.7914  -17.4263   27.3648 H   0  0  0  0  0  0  0  0  0  0  0  0
   -1.7686  -17.3068   26.2936 H   0  0  0  0  0  0  0  0  0  0  0  0
    0.6226   -6.5080   21.8826 H   0  0  0  0  0  0  0  0  0  0  0  0
   -0.3129   -7.7039   19.2480 H   0  0  0  0  0  0  0  0  0  0  0  0
    0.9389   -8.7209   17.7837 H   0  0  0  0  0  0  0  0  0  0  0  0
    2.3865   -8.0458   18.3644 H   0  0  0  0  0  0  0  0  0  0  0  0
    2.3161   -9.7245   18.2760 H   0  0  0  0  0  0  0  0  0  0  0  0
  1  2  1  0
  2  3  1  0
  3  4  1  0
  4  5  2  0
  4  6  1  0
  6  7  1  0
  7  8  2  0
  8  9  1  0
  9 10  1  0
 10 11  2  0
 11 12  1  0
 12 13  2  0
 13 14  1  0
  2 15  1  0
 15 16  2  0
 16 17  1  0
 17 18  2  0
 18 19  1  0
 19 20  1  0
 14  6  2  0
 19 15  1  0
 13  9  1  0
  1 21  1  0
  1 22  1  0
  1 23  1  0
  2 24  1  0
  3 25  1  0
  7 26  1  0
  8 27  1  0
 10 28  1  0
 11 29  1  0
 17 30  1  0
 18 31  1  0
 20 32  1  0
 20 33  1  0
 20 34  1  0
M  END
>  <Energy>  (343) 
295.16945546551921

>  <compound_id>  (343) 
8690

>  <target_id>  (343) 
1

>  <reference_id>  (343) 
114

>  <inspiration_ids>  (343) 
[114, 107]

>  <energy_score>  (343) 
225.19130720356145

>  <distance_score>  (343) 
15.742803270892908

>  <path>  (343) 
/opt/xchem-fragalysis-2/maxwin/BulkDock/SCRATCH/511022/C8690-P114/C8690-P114.minimised.mol

>  <scratch_subdir>  (343) 
/opt/xchem-fragalysis-2/maxwin/BulkDock/SCRATCH/511022/C8690-P114

>  <fragmenstein_runtime>  (343) 
17.20571279525757

>  <fragmenstein_outcome>  (343) 
too moved

>  <fragmenstein_mode>  (343) 
expansion

>  <fragmenstein_error>  (343) 


$$$$
C8690-P107
     RDKit          3D

 34 36  0  0  0  0  0  0  0  0999 V2000
    1.4770  -19.6273   17.0080 C   0  0  0  0  0  0  0  0  0  0  0  0
    2.1989  -19.2564   18.3034 C   0  0  0  0  0  0  0  0  0  0  0  0
    1.2081  -19.2055   19.4194 N   0  0  0  0  0  0  0  0  0  0  0  0
    0.9714  -20.1190   20.5227 C   0  0  0  0  0  0  0  0  0  0  0  0
    1.5659  -21.1063   20.8631 O   0  0  0  0  0  0  0  0  0  0  0  0
   -0.3228  -19.9193   21.4084 C   0  0  0  0  0  0  0  0  0  0  0  0
   -0.0846  -19.9191   22.9074 C   0  0  0  0  0  0  0  0  0  0  0  0
   -1.1519  -20.1235   23.6995 C   0  0  0  0  0  0  0  0  0  0  0  0
   -2.4003  -20.2676   23.1212 N   0  0  0  0  0  0  0  0  0  0  0  0
   -3.6150  -20.5492   23.6968 C   0  0  0  0  0  0  0  0  0  0  0  0
   -4.4952  -20.6051   22.6437 C   0  0  0  0  0  0  0  0  0  0  0  0
   -3.8641  -20.3290   21.4598 N   0  0  0  0  0  0  0  0  0  0  0  0
   -2.5857  -20.1568   21.7412 C   0  0  0  0  0  0  0  0  0  0  0  0
   -1.5198  -19.9832   20.8751 N   0  0  0  0  0  0  0  0  0  0  0  0
    3.1512  -18.0588   18.0635 C   0  0  0  0  0  0  0  0  0  0  0  0
    2.8532  -16.7721   18.0261 N   0  0  0  0  0  0  0  0  0  0  0  0
    4.0308  -16.0896   17.8896 C   0  0  0  0  0  0  0  0  0  0  0  0
    5.0790  -16.9479   17.7020 C   0  0  0  0  0  0  0  0  0  0  0  0
    4.5138  -18.1914   17.8041 N   0  0  0  0  0  0  0  0  0  0  0  0
    5.2418  -19.4343   17.7078 C   0  0  0  0  0  0  0  0  0  0  0  0
    0.9206  -20.5634   17.1296 H   0  0  0  0  0  0  0  0  0  0  0  0
    0.7560  -18.8583   16.7155 H   0  0  0  0  0  0  0  0  0  0  0  0
    2.1826  -19.7587   16.1806 H   0  0  0  0  0  0  0  0  0  0  0  0
    2.8304  -20.1135   18.5668 H   0  0  0  0  0  0  0  0  0  0  0  0
    0.4541  -18.5242   19.3853 H   0  0  0  0  0  0  0  0  0  0  0  0
    0.9302  -19.8178   23.2683 H   0  0  0  0  0  0  0  0  0  0  0  0
   -1.0846  -20.1901   24.7773 H   0  0  0  0  0  0  0  0  0  0  0  0
   -3.7307  -20.7031   24.7589 H   0  0  0  0  0  0  0  0  0  0  0  0
   -5.5512  -20.8333   22.6421 H   0  0  0  0  0  0  0  0  0  0  0  0
    4.0492  -15.0144   17.9905 H   0  0  0  0  0  0  0  0  0  0  0  0
    6.1387  -16.7842   17.5706 H   0  0  0  0  0  0  0  0  0  0  0  0
    5.2459  -19.9091   18.6920 H   0  0  0  0  0  0  0  0  0  0  0  0
    4.7510  -20.0715   16.9682 H   0  0  0  0  0  0  0  0  0  0  0  0
    6.2682  -19.2323   17.3903 H   0  0  0  0  0  0  0  0  0  0  0  0
  1  2  1  0
  2  3  1  0
  3  4  1  0
  4  5  2  0
  4  6  1  0
  6  7  1  0
  7  8  2  0
  8  9  1  0
  9 10  1  0
 10 11  2  0
 11 12  1  0
 12 13  2  0
 13 14  1  0
  2 15  1  0
 15 16  2  0
 16 17  1  0
 17 18  2  0
 18 19  1  0
 19 20  1  0
 14  6  2  0
 19 15  1  0
 13  9  1  0
  1 21  1  0
  1 22  1  0
  1 23  1  0
  2 24  1  0
  3 25  1  0
  7 26  1  0
  8 27  1  0
 10 28  1  0
 11 29  1  0
 17 30  1  0
 18 31  1  0
 20 32  1  0
 20 33  1  0
 20 34  1  0
M  END
>  <Energy>  (344) 
67.73500031096836

>  <compound_id>  (344) 
8690

>  <target_id>  (344) 
1

>  <reference_id>  (344) 
107

>  <inspiration_ids>  (344) 
[114, 107]

>  <energy_score>  (344) 
-2.243147950986895

>  <distance_score>  (344) 
14.984606629231545

>  <path>  (344) 
/opt/xchem-fragalysis-2/maxwin/BulkDock/SCRATCH/511022/C8690-P107/C8690-P107.minimised.mol

>  <scratch_subdir>  (344) 
/opt/xchem-fragalysis-2/maxwin/BulkDock/SCRATCH/511022/C8690-P107

>  <fragmenstein_runtime>  (344) 
33.14640164375305

>  <fragmenstein_outcome>  (344) 
too moved

>  <fragmenstein_mode>  (344) 
expansion

>  <fragmenstein_error>  (344) 


$$$$
C8677-P114
     RDKit          3D

 35 37  0  0  0  0  0  0  0  0999 V2000
   -1.3517  -16.0425   22.7656 C   0  0  0  0  0  0  0  0  0  0  0  0
    0.1094  -15.5928   22.9852 C   0  0  0  0  0  0  0  0  0  0  0  0
    0.7320  -14.4097   23.8355 N   0  0  0  0  0  0  0  0  0  0  0  0
    2.5345  -13.6023   23.6487 C   0  0  0  0  0  0  0  0  0  0  0  0
    3.4299  -12.7104   22.1767 C   0  0  0  0  0  0  0  0  0  0  0  0
    3.5338  -13.3089   21.0041 N   0  0  0  0  0  0  0  0  0  0  0  0
    4.5739  -12.9446   20.1180 C   0  0  0  0  0  0  0  0  0  0  0  0
    5.3177  -12.0342   20.7075 C   0  0  0  0  0  0  0  0  0  0  0  0
    4.4393  -11.6816   21.8089 N   0  0  0  0  0  0  0  0  0  0  0  0
    4.9892  -10.7641   22.6997 C   0  0  0  0  0  0  0  0  0  0  0  0
   -0.1320  -14.6042   25.2503 C   0  0  0  0  0  0  0  0  0  0  0  0
    0.2072  -13.9940   26.6245 C   0  0  0  0  0  0  0  0  0  0  0  0
   -0.4941  -14.3554   27.7165 C   0  0  0  0  0  0  0  0  0  0  0  0
   -1.5479  -15.2392   27.5996 N   0  0  0  0  0  0  0  0  0  0  0  0
   -2.3934  -15.7594   28.5499 C   0  0  0  0  0  0  0  0  0  0  0  0
   -3.2592  -16.5595   27.8496 C   0  0  0  0  0  0  0  0  0  0  0  0
   -2.9642  -16.5353   26.5081 N   0  0  0  0  0  0  0  0  0  0  0  0
   -1.9162  -15.7399   26.3696 C   0  0  0  0  0  0  0  0  0  0  0  0
   -1.2053  -15.4083   25.2472 N   0  0  0  0  0  0  0  0  0  0  0  0
   -1.6962  -16.7588   23.5190 H   0  0  0  0  0  0  0  0  0  0  0  0
   -2.1151  -15.2951   22.6279 H   0  0  0  0  0  0  0  0  0  0  0  0
   -1.3766  -16.6417   21.8427 H   0  0  0  0  0  0  0  0  0  0  0  0
    0.3991  -15.4628   21.9860 H   0  0  0  0  0  0  0  0  0  0  0  0
    0.4650  -16.5296   23.4115 H   0  0  0  0  0  0  0  0  0  0  0  0
    2.4115  -12.7619   24.2992 H   0  0  0  0  0  0  0  0  0  0  0  0
    3.2731  -14.3905   23.8084 H   0  0  0  0  0  0  0  0  0  0  0  0
    4.6379  -13.4220   19.1684 H   0  0  0  0  0  0  0  0  0  0  0  0
    6.1833  -11.5002   20.3899 H   0  0  0  0  0  0  0  0  0  0  0  0
    4.7477   -9.8678   23.2269 H   0  0  0  0  0  0  0  0  0  0  0  0
    5.7386  -11.1347   23.4210 H   0  0  0  0  0  0  0  0  0  0  0  0
    3.8973  -10.6779   22.7854 H   0  0  0  0  0  0  0  0  0  0  0  0
    1.0237  -13.2958   26.6597 H   0  0  0  0  0  0  0  0  0  0  0  0
   -0.2751  -13.9704   28.7026 H   0  0  0  0  0  0  0  0  0  0  0  0
   -2.3075  -15.5157   29.5976 H   0  0  0  0  0  0  0  0  0  0  0  0
   -4.0895  -17.1380   28.2275 H   0  0  0  0  0  0  0  0  0  0  0  0
  1  2  1  0
  2  3  1  0
  3  4  1  0
  4  5  1  0
  5  6  2  0
  6  7  1  0
  7  8  2  0
  8  9  1  0
  9 10  1  0
  3 11  1  0
 11 12  1  0
 12 13  2  0
 13 14  1  0
 14 15  1  0
 15 16  2  0
 16 17  1  0
 17 18  2  0
 18 19  1  0
  9  5  1  0
 19 11  2  0
 18 14  1  0
  1 20  1  0
  1 21  1  0
  1 22  1  0
  2 23  1  0
  2 24  1  0
  4 25  1  0
  4 26  1  0
  7 27  1  0
  8 28  1  0
 10 29  1  0
 10 30  1  0
 10 31  1  0
 12 32  1  0
 13 33  1  0
 15 34  1  0
 16 35  1  0
M  END
>  <Energy>  (345) 
325.03789714268044

>  <compound_id>  (345) 
8677

>  <target_id>  (345) 
1

>  <reference_id>  (345) 
114

>  <inspiration_ids>  (345) 
[114, 107]

>  <energy_score>  (345) 
287.7299325034412

>  <distance_score>  (345) 
14.393072588954048

>  <path>  (345) 
/opt/xchem-fragalysis-2/maxwin/BulkDock/SCRATCH/511022/C8677-P114/C8677-P114.minimised.mol

>  <scratch_subdir>  (345) 
/opt/xchem-fragalysis-2/maxwin/BulkDock/SCRATCH/511022/C8677-P114

>  <fragmenstein_runtime>  (345) 
14.380970001220703

>  <fragmenstein_outcome>  (345) 
too moved

>  <fragmenstein_mode>  (345) 
expansion

>  <fragmenstein_error>  (345) 


$$$$
C8677-P107
     RDKit          3D

 35 37  0  0  0  0  0  0  0  0999 V2000
   -2.9878  -17.1288   22.4958 C   0  0  0  0  0  0  0  0  0  0  0  0
   -1.5950  -16.5124   22.5550 C   0  0  0  0  0  0  0  0  0  0  0  0
   -1.4976  -15.4771   23.6038 N   0  0  0  0  0  0  0  0  0  0  0  0
   -0.2448  -14.3754   23.3003 C   0  0  0  0  0  0  0  0  0  0  0  0
   -0.3348  -12.5291   22.5436 C   0  0  0  0  0  0  0  0  0  0  0  0
    0.4385  -11.3367   22.5575 N   0  0  0  0  0  0  0  0  0  0  0  0
   -0.1663  -10.1780   21.8149 C   0  0  0  0  0  0  0  0  0  0  0  0
   -1.3163  -10.4837   21.1652 C   0  0  0  0  0  0  0  0  0  0  0  0
   -1.4678  -11.8678   21.2623 N   0  0  0  0  0  0  0  0  0  0  0  0
   -2.4354  -12.5378   20.3763 C   0  0  0  0  0  0  0  0  0  0  0  0
   -1.8972  -15.8513   24.9406 C   0  0  0  0  0  0  0  0  0  0  0  0
   -1.4523  -17.1911   25.5338 C   0  0  0  0  0  0  0  0  0  0  0  0
   -1.8812  -17.5228   26.7625 C   0  0  0  0  0  0  0  0  0  0  0  0
   -2.7174  -16.6562   27.4391 N   0  0  0  0  0  0  0  0  0  0  0  0
   -3.1965  -16.6945   28.7233 C   0  0  0  0  0  0  0  0  0  0  0  0
   -4.0894  -15.6574   28.8112 C   0  0  0  0  0  0  0  0  0  0  0  0
   -4.0621  -14.9089   27.6607 N   0  0  0  0  0  0  0  0  0  0  0  0
   -3.1791  -15.4848   26.8573 C   0  0  0  0  0  0  0  0  0  0  0  0
   -2.7473  -15.0965   25.6147 N   0  0  0  0  0  0  0  0  0  0  0  0
   -3.0663  -17.7959   21.6312 H   0  0  0  0  0  0  0  0  0  0  0  0
   -3.7556  -16.3537   22.3999 H   0  0  0  0  0  0  0  0  0  0  0  0
   -3.2140  -17.7202   23.3870 H   0  0  0  0  0  0  0  0  0  0  0  0
   -0.8323  -17.2839   22.7010 H   0  0  0  0  0  0  0  0  0  0  0  0
   -1.4280  -16.0732   21.5746 H   0  0  0  0  0  0  0  0  0  0  0  0
    0.2992  -14.9561   22.5747 H   0  0  0  0  0  0  0  0  0  0  0  0
    0.3318  -14.3948   24.2145 H   0  0  0  0  0  0  0  0  0  0  0  0
    0.3286   -9.2149   21.8036 H   0  0  0  0  0  0  0  0  0  0  0  0
   -1.9535   -9.8942   20.5217 H   0  0  0  0  0  0  0  0  0  0  0  0
   -3.4257  -12.1168   20.5809 H   0  0  0  0  0  0  0  0  0  0  0  0
   -2.1851  -12.2679   19.3456 H   0  0  0  0  0  0  0  0  0  0  0  0
   -2.4411  -13.6196   20.5104 H   0  0  0  0  0  0  0  0  0  0  0  0
   -0.7832  -17.8143   24.9590 H   0  0  0  0  0  0  0  0  0  0  0  0
   -1.5928  -18.4353   27.2657 H   0  0  0  0  0  0  0  0  0  0  0  0
   -2.8537  -17.4168   29.4434 H   0  0  0  0  0  0  0  0  0  0  0  0
   -4.7094  -15.3740   29.6514 H   0  0  0  0  0  0  0  0  0  0  0  0
  1  2  1  0
  2  3  1  0
  3  4  1  0
  4  5  1  0
  5  6  2  0
  6  7  1  0
  7  8  2  0
  8  9  1  0
  9 10  1  0
  3 11  1  0
 11 12  1  0
 12 13  2  0
 13 14  1  0
 14 15  1  0
 15 16  2  0
 16 17  1  0
 17 18  2  0
 18 19  1  0
  9  5  1  0
 19 11  2  0
 18 14  1  0
  1 20  1  0
  1 21  1  0
  1 22  1  0
  2 23  1  0
  2 24  1  0
  4 25  1  0
  4 26  1  0
  7 27  1  0
  8 28  1  0
 10 29  1  0
 10 30  1  0
 10 31  1  0
 12 32  1  0
 13 33  1  0
 15 34  1  0
 16 35  1  0
M  END
>  <Energy>  (346) 
183.23440399095057

>  <compound_id>  (346) 
8677

>  <target_id>  (346) 
1

>  <reference_id>  (346) 
107

>  <inspiration_ids>  (346) 
[114, 107]

>  <energy_score>  (346) 
145.9264393517028

>  <distance_score>  (346) 
14.191182070906601

>  <path>  (346) 
/opt/xchem-fragalysis-2/maxwin/BulkDock/SCRATCH/511022/C8677-P107/C8677-P107.minimised.mol

>  <scratch_subdir>  (346) 
/opt/xchem-fragalysis-2/maxwin/BulkDock/SCRATCH/511022/C8677-P107

>  <fragmenstein_runtime>  (346) 
17.498993635177612

>  <fragmenstein_outcome>  (346) 
too moved

>  <fragmenstein_mode>  (346) 
expansion

>  <fragmenstein_error>  (346) 


$$$$
C8691-P114
     RDKit          3D

 36 39  0  0  0  0  0  0  0  0999 V2000
   13.4396   -5.8866   18.5626 C   0  0  0  0  0  0  0  0  0  0  0  0
   12.8747   -6.0844   17.1518 N   0  0  0  0  0  0  0  0  0  0  0  0
   12.8600   -4.8437   16.5336 C   0  0  0  0  0  0  0  0  0  0  0  0
   11.6511   -4.8464   15.9783 C   0  0  0  0  0  0  0  0  0  0  0  0
   11.2534   -6.2368   15.7372 N   0  0  0  0  0  0  0  0  0  0  0  0
   11.7267   -7.2121   16.4564 C   0  0  0  0  0  0  0  0  0  0  0  0
   10.6486   -8.8940   16.8602 C   0  0  0  0  0  0  0  0  0  0  0  0
   11.1844  -10.3153   17.1047 C   0  0  0  0  0  0  0  0  0  0  0  0
    9.9431  -11.3106   17.7142 C   0  0  0  0  0  0  0  0  0  0  0  0
    8.9647  -10.6202   18.6993 N   0  0  0  0  0  0  0  0  0  0  0  0
    7.5709  -11.1436   19.6366 C   0  0  0  0  0  0  0  0  0  0  0  0
    6.1613  -11.4694   18.9781 C   0  0  0  0  0  0  0  0  0  0  0  0
    5.4429  -12.5610   19.3522 C   0  0  0  0  0  0  0  0  0  0  0  0
    5.1217  -12.4198   20.5949 N   0  0  0  0  0  0  0  0  0  0  0  0
    4.0141  -12.7840   21.2201 C   0  0  0  0  0  0  0  0  0  0  0  0
    3.8853  -11.9262   22.2719 C   0  0  0  0  0  0  0  0  0  0  0  0
    5.0156  -11.0261   22.2322 N   0  0  0  0  0  0  0  0  0  0  0  0
    5.9064  -11.5247   21.2571 C   0  0  0  0  0  0  0  0  0  0  0  0
    7.3179  -11.5159   20.9321 N   0  0  0  0  0  0  0  0  0  0  0  0
    9.5680   -9.2393   18.5029 C   0  0  0  0  0  0  0  0  0  0  0  0
   12.7820   -5.1952   19.0982 H   0  0  0  0  0  0  0  0  0  0  0  0
   13.5698   -6.8163   19.1191 H   0  0  0  0  0  0  0  0  0  0  0  0
   14.4138   -5.3927   18.4479 H   0  0  0  0  0  0  0  0  0  0  0  0
   13.5646   -4.0585   16.7650 H   0  0  0  0  0  0  0  0  0  0  0  0
   11.1143   -4.0406   15.4923 H   0  0  0  0  0  0  0  0  0  0  0  0
    9.8839   -8.8778   16.0715 H   0  0  0  0  0  0  0  0  0  0  0  0
   11.9674  -10.3070   17.8692 H   0  0  0  0  0  0  0  0  0  0  0  0
   11.5887  -10.7708   16.1962 H   0  0  0  0  0  0  0  0  0  0  0  0
    9.4075  -11.6599   16.8300 H   0  0  0  0  0  0  0  0  0  0  0  0
   10.4877  -12.1058   18.2325 H   0  0  0  0  0  0  0  0  0  0  0  0
    5.7500  -10.5602   18.6543 H   0  0  0  0  0  0  0  0  0  0  0  0
    5.6882  -13.6066   19.3278 H   0  0  0  0  0  0  0  0  0  0  0  0
    3.3314  -13.5242   20.9133 H   0  0  0  0  0  0  0  0  0  0  0  0
    3.0712  -11.9910   22.9831 H   0  0  0  0  0  0  0  0  0  0  0  0
   10.2936   -9.2230   19.3356 H   0  0  0  0  0  0  0  0  0  0  0  0
    8.8503   -8.4483   18.7060 H   0  0  0  0  0  0  0  0  0  0  0  0
  1  2  1  0
  2  3  1  0
  3  4  2  0
  4  5  1  0
  5  6  2  0
  6  7  1  0
  7  8  1  0
  8  9  1  0
  9 10  1  0
 10 11  1  0
 11 12  1  0
 12 13  2  0
 13 14  1  0
 14 15  1  0
 15 16  2  0
 16 17  1  0
 17 18  2  0
 18 19  1  0
 10 20  1  0
  6  2  1  0
 20  7  1  0
 19 11  2  0
 18 14  1  0
  1 21  1  0
  1 22  1  0
  1 23  1  0
  3 24  1  0
  4 25  1  0
  7 26  1  0
  8 27  1  0
  8 28  1  0
  9 29  1  0
  9 30  1  0
 12 31  1  0
 13 32  1  0
 15 33  1  0
 16 34  1  0
 20 35  1  0
 20 36  1  0
M  END
>  <Energy>  (347) 
485.73602123685208

>  <compound_id>  (347) 
8691

>  <target_id>  (347) 
1

>  <reference_id>  (347) 
114

>  <inspiration_ids>  (347) 
[114, 107]

>  <energy_score>  (347) 
451.1545548508584

>  <distance_score>  (347) 
19.053605959272947

>  <path>  (347) 
/opt/xchem-fragalysis-2/maxwin/BulkDock/SCRATCH/511022/C8691-P114/C8691-P114.minimised.mol

>  <scratch_subdir>  (347) 
/opt/xchem-fragalysis-2/maxwin/BulkDock/SCRATCH/511022/C8691-P114

>  <fragmenstein_runtime>  (347) 
20.085277795791626

>  <fragmenstein_outcome>  (347) 
too moved

>  <fragmenstein_mode>  (347) 
expansion

>  <fragmenstein_error>  (347) 


$$$$
C8691-P107
     RDKit          3D

 36 39  0  0  0  0  0  0  0  0999 V2000
    4.4244  -17.3225   27.1868 C   0  0  0  0  0  0  0  0  0  0  0  0
    4.4563  -15.9290   27.5638 N   0  0  0  0  0  0  0  0  0  0  0  0
    5.4565  -15.0679   27.1699 C   0  0  0  0  0  0  0  0  0  0  0  0
    5.2536  -13.9347   27.9056 C   0  0  0  0  0  0  0  0  0  0  0  0
    4.0967  -14.0502   28.6491 N   0  0  0  0  0  0  0  0  0  0  0  0
    3.6034  -15.2725   28.4447 C   0  0  0  0  0  0  0  0  0  0  0  0
    2.3924  -15.8629   29.2392 C   0  0  0  0  0  0  0  0  0  0  0  0
    2.7463  -17.0114   30.1796 C   0  0  0  0  0  0  0  0  0  0  0  0
    1.3786  -17.4930   30.6890 C   0  0  0  0  0  0  0  0  0  0  0  0
    0.4489  -17.3217   29.5592 N   0  0  0  0  0  0  0  0  0  0  0  0
   -0.8987  -17.7386   29.6670 C   0  0  0  0  0  0  0  0  0  0  0  0
   -1.9030  -17.5036   28.5517 C   0  0  0  0  0  0  0  0  0  0  0  0
   -3.1883  -17.8206   28.7861 C   0  0  0  0  0  0  0  0  0  0  0  0
   -3.5371  -18.3721   30.0055 N   0  0  0  0  0  0  0  0  0  0  0  0
   -4.7623  -18.6780   30.5218 C   0  0  0  0  0  0  0  0  0  0  0  0
   -4.5080  -19.2463   31.7471 C   0  0  0  0  0  0  0  0  0  0  0  0
   -3.1637  -19.2447   32.0107 N   0  0  0  0  0  0  0  0  0  0  0  0
   -2.5884  -18.6750   30.9675 C   0  0  0  0  0  0  0  0  0  0  0  0
   -1.2740  -18.3445   30.7800 N   0  0  0  0  0  0  0  0  0  0  0  0
    1.1008  -16.4345   28.5507 C   0  0  0  0  0  0  0  0  0  0  0  0
    5.0143  -17.8840   27.9155 H   0  0  0  0  0  0  0  0  0  0  0  0
    4.8608  -17.4328   26.1903 H   0  0  0  0  0  0  0  0  0  0  0  0
    3.3973  -17.6847   27.1696 H   0  0  0  0  0  0  0  0  0  0  0  0
    6.2279  -15.3523   26.4688 H   0  0  0  0  0  0  0  0  0  0  0  0
    5.8552  -13.0362   27.9304 H   0  0  0  0  0  0  0  0  0  0  0  0
    2.0484  -15.0282   29.8707 H   0  0  0  0  0  0  0  0  0  0  0  0
    3.2451  -17.8273   29.6462 H   0  0  0  0  0  0  0  0  0  0  0  0
    3.3991  -16.7006   31.0014 H   0  0  0  0  0  0  0  0  0  0  0  0
    1.4356  -18.5377   31.0117 H   0  0  0  0  0  0  0  0  0  0  0  0
    1.0510  -16.8744   31.5327 H   0  0  0  0  0  0  0  0  0  0  0  0
   -1.5572  -17.0637   27.6284 H   0  0  0  0  0  0  0  0  0  0  0  0
   -3.9814  -17.6520   28.0714 H   0  0  0  0  0  0  0  0  0  0  0  0
   -5.6846  -18.4921   29.9954 H   0  0  0  0  0  0  0  0  0  0  0  0
   -5.2191  -19.6482   32.4570 H   0  0  0  0  0  0  0  0  0  0  0  0
    1.3339  -17.0562   27.6848 H   0  0  0  0  0  0  0  0  0  0  0  0
    0.4356  -15.6199   28.2475 H   0  0  0  0  0  0  0  0  0  0  0  0
  1  2  1  0
  2  3  1  0
  3  4  2  0
  4  5  1  0
  5  6  2  0
  6  7  1  0
  7  8  1  0
  8  9  1  0
  9 10  1  0
 10 11  1  0
 11 12  1  0
 12 13  2  0
 13 14  1  0
 14 15  1  0
 15 16  2  0
 16 17  1  0
 17 18  2  0
 18 19  1  0
 10 20  1  0
  6  2  1  0
 20  7  1  0
 19 11  2  0
 18 14  1  0
  1 21  1  0
  1 22  1  0
  1 23  1  0
  3 24  1  0
  4 25  1  0
  7 26  1  0
  8 27  1  0
  8 28  1  0
  9 29  1  0
  9 30  1  0
 12 31  1  0
 13 32  1  0
 15 33  1  0
 16 34  1  0
 20 35  1  0
 20 36  1  0
M  END
>  <Energy>  (348) 
17.806687841180896

>  <compound_id>  (348) 
8691

>  <target_id>  (348) 
1

>  <reference_id>  (348) 
107

>  <inspiration_ids>  (348) 
[114, 107]

>  <energy_score>  (348) 
-16.774778544802416

>  <distance_score>  (348) 
14.540096817226859

>  <path>  (348) 
/opt/xchem-fragalysis-2/maxwin/BulkDock/SCRATCH/511022/C8691-P107/C8691-P107.minimised.mol

>  <scratch_subdir>  (348) 
/opt/xchem-fragalysis-2/maxwin/BulkDock/SCRATCH/511022/C8691-P107

>  <fragmenstein_runtime>  (348) 
42.9535915851593

>  <fragmenstein_outcome>  (348) 
too moved

>  <fragmenstein_mode>  (348) 
expansion

>  <fragmenstein_error>  (348) 


$$$$
C8686-P114
     RDKit          3D

 32 34  0  0  0  0  0  0  0  0999 V2000
    5.0012   -8.8863   13.0812 C   0  0  0  0  0  0  0  0  0  0  0  0
    5.0133  -10.2799   13.4689 N   0  0  0  0  0  0  0  0  0  0  0  0
    5.9332  -10.8819   12.5779 C   0  0  0  0  0  0  0  0  0  0  0  0
    6.0645  -12.1534   12.9561 C   0  0  0  0  0  0  0  0  0  0  0  0
    5.1988  -12.3690   14.0035 N   0  0  0  0  0  0  0  0  0  0  0  0
    4.4998  -11.3032   14.4517 C   0  0  0  0  0  0  0  0  0  0  0  0
    3.3959  -11.6679   16.0011 C   0  0  0  0  0  0  0  0  0  0  0  0
    1.6336  -12.8039   15.8622 C   0  0  0  0  0  0  0  0  0  0  0  0
    0.4006  -13.5034   17.3094 N   0  0  0  0  0  0  0  0  0  0  0  0
   -1.3641  -13.9383   17.6296 C   0  0  0  0  0  0  0  0  0  0  0  0
   -2.4318  -14.6216   16.5110 C   0  0  0  0  0  0  0  0  0  0  0  0
   -3.2536  -15.7213   16.6626 C   0  0  0  0  0  0  0  0  0  0  0  0
   -3.1952  -16.5659   17.8193 N   0  0  0  0  0  0  0  0  0  0  0  0
   -3.9303  -17.6724   18.1932 C   0  0  0  0  0  0  0  0  0  0  0  0
   -3.4577  -18.0246   19.4356 C   0  0  0  0  0  0  0  0  0  0  0  0
   -2.4445  -17.1847   19.8243 N   0  0  0  0  0  0  0  0  0  0  0  0
   -2.2972  -16.2758   18.8779 C   0  0  0  0  0  0  0  0  0  0  0  0
   -1.5042  -14.9647   18.8382 N   0  0  0  0  0  0  0  0  0  0  0  0
    4.5816   -8.8043   12.0713 H   0  0  0  0  0  0  0  0  0  0  0  0
    4.5255   -8.1819   13.7141 H   0  0  0  0  0  0  0  0  0  0  0  0
    6.0377   -8.5291   13.0293 H   0  0  0  0  0  0  0  0  0  0  0  0
    6.4151  -10.3276   11.7841 H   0  0  0  0  0  0  0  0  0  0  0  0
    6.6996  -12.9348   12.5665 H   0  0  0  0  0  0  0  0  0  0  0  0
    3.9526  -12.0134   16.8616 H   0  0  0  0  0  0  0  0  0  0  0  0
    3.2475  -10.6959   16.4890 H   0  0  0  0  0  0  0  0  0  0  0  0
    1.3838  -12.7048   14.7605 H   0  0  0  0  0  0  0  0  0  0  0  0
    1.6346  -13.8727   15.8447 H   0  0  0  0  0  0  0  0  0  0  0  0
    1.0369  -14.1460   17.7704 H   0  0  0  0  0  0  0  0  0  0  0  0
   -2.2174  -14.3450   15.5047 H   0  0  0  0  0  0  0  0  0  0  0  0
   -3.8566  -16.1015   15.8476 H   0  0  0  0  0  0  0  0  0  0  0  0
   -4.7006  -18.0853   17.5606 H   0  0  0  0  0  0  0  0  0  0  0  0
   -3.7761  -18.8416   20.0692 H   0  0  0  0  0  0  0  0  0  0  0  0
  1  2  1  0
  2  3  1  0
  3  4  2  0
  4  5  1  0
  5  6  2  0
  6  7  1  0
  7  8  1  0
  8  9  1  0
  9 10  1  0
 10 11  1  0
 11 12  2  0
 12 13  1  0
 13 14  1  0
 14 15  2  0
 15 16  1  0
 16 17  2  0
 17 18  1  0
  6  2  1  0
 18 10  2  0
 17 13  1  0
  1 19  1  0
  1 20  1  0
  1 21  1  0
  3 22  1  0
  4 23  1  0
  7 24  1  0
  7 25  1  0
  8 26  1  0
  8 27  1  0
  9 28  1  0
 11 29  1  0
 12 30  1  0
 14 31  1  0
 15 32  1  0
M  END
>  <Energy>  (349) 
505.48133850459988

>  <compound_id>  (349) 
8686

>  <target_id>  (349) 
1

>  <reference_id>  (349) 
114

>  <inspiration_ids>  (349) 
[114, 107]

>  <energy_score>  (349) 
481.7322900586671

>  <distance_score>  (349) 
16.00076978439873

>  <path>  (349) 
/opt/xchem-fragalysis-2/maxwin/BulkDock/SCRATCH/511022/C8686-P114/C8686-P114.minimised.mol

>  <scratch_subdir>  (349) 
/opt/xchem-fragalysis-2/maxwin/BulkDock/SCRATCH/511022/C8686-P114

>  <fragmenstein_runtime>  (349) 
12.553236722946167

>  <fragmenstein_outcome>  (349) 
too moved

>  <fragmenstein_mode>  (349) 
expansion

>  <fragmenstein_error>  (349) 


$$$$
C8686-P107
     RDKit          3D

 32 34  0  0  0  0  0  0  0  0999 V2000
   -3.2197  -19.7356   16.1956 C   0  0  0  0  0  0  0  0  0  0  0  0
   -3.7135  -18.4189   16.5196 N   0  0  0  0  0  0  0  0  0  0  0  0
   -3.7580  -17.3615   15.6435 C   0  0  0  0  0  0  0  0  0  0  0  0
   -4.1643  -16.3005   16.4040 C   0  0  0  0  0  0  0  0  0  0  0  0
   -4.4855  -16.7301   17.6739 N   0  0  0  0  0  0  0  0  0  0  0  0
   -4.2604  -18.0247   17.7308 C   0  0  0  0  0  0  0  0  0  0  0  0
   -4.5396  -18.9788   18.9019 C   0  0  0  0  0  0  0  0  0  0  0  0
   -5.8285  -18.7301   19.7640 C   0  0  0  0  0  0  0  0  0  0  0  0
   -6.4437  -20.0122   20.2024 N   0  0  0  0  0  0  0  0  0  0  0  0
   -6.9357  -20.4000   21.4522 C   0  0  0  0  0  0  0  0  0  0  0  0
   -7.3208  -21.9189   21.5000 C   0  0  0  0  0  0  0  0  0  0  0  0
   -7.6673  -22.6495   22.5726 C   0  0  0  0  0  0  0  0  0  0  0  0
   -7.8121  -21.9827   23.7798 N   0  0  0  0  0  0  0  0  0  0  0  0
   -7.3729  -22.6180   25.7052 C   0  0  0  0  0  0  0  0  0  0  0  0
   -7.6821  -21.0776   26.8005 C   0  0  0  0  0  0  0  0  0  0  0  0
   -7.0399  -19.5551   25.5158 N   0  0  0  0  0  0  0  0  0  0  0  0
   -7.4072  -20.0016   23.6613 C   0  0  0  0  0  0  0  0  0  0  0  0
   -7.0043  -19.5340   22.4393 N   0  0  0  0  0  0  0  0  0  0  0  0
   -2.5443  -20.0621   16.9904 H   0  0  0  0  0  0  0  0  0  0  0  0
   -4.0733  -20.4120   16.1072 H   0  0  0  0  0  0  0  0  0  0  0  0
   -2.6742  -19.6968   15.2490 H   0  0  0  0  0  0  0  0  0  0  0  0
   -3.4408  -17.4397   14.6133 H   0  0  0  0  0  0  0  0  0  0  0  0
   -4.2719  -15.2659   16.1086 H   0  0  0  0  0  0  0  0  0  0  0  0
   -3.6678  -18.9531   19.5677 H   0  0  0  0  0  0  0  0  0  0  0  0
   -4.5883  -19.9989   18.5019 H   0  0  0  0  0  0  0  0  0  0  0  0
   -5.5720  -18.1102   20.6297 H   0  0  0  0  0  0  0  0  0  0  0  0
   -6.5761  -18.1888   19.1745 H   0  0  0  0  0  0  0  0  0  0  0  0
   -6.6170  -20.6422   19.4288 H   0  0  0  0  0  0  0  0  0  0  0  0
   -7.1877  -22.4371   20.5547 H   0  0  0  0  0  0  0  0  0  0  0  0
   -7.7944  -23.7233   22.5762 H   0  0  0  0  0  0  0  0  0  0  0  0
   -6.4732  -23.2482   25.6040 H   0  0  0  0  0  0  0  0  0  0  0  0
   -7.3093  -20.7143   27.6852 H   0  0  0  0  0  0  0  0  0  0  0  0
  1  2  1  0
  2  3  1  0
  3  4  2  0
  4  5  1  0
  5  6  2  0
  6  7  1  0
  7  8  1  0
  8  9  1  0
  9 10  1  0
 10 11  1  0
 11 12  2  0
 12 13  1  0
 13 14  1  0
 14 15  2  0
 15 16  1  0
 16 17  2  0
 17 18  1  0
  6  2  1  0
 18 10  2  0
 17 13  1  0
  1 19  1  0
  1 20  1  0
  1 21  1  0
  3 22  1  0
  4 23  1  0
  7 24  1  0
  7 25  1  0
  8 26  1  0
  8 27  1  0
  9 28  1  0
 11 29  1  0
 12 30  1  0
 14 31  1  0
 15 32  1  0
M  END
>  <Energy>  (350) 
696.12718167403034

>  <compound_id>  (350) 
8686

>  <target_id>  (350) 
1

>  <reference_id>  (350) 
107

>  <inspiration_ids>  (350) 
[114, 107]

>  <energy_score>  (350) 
672.3781332281105

>  <distance_score>  (350) 
15.218204816045485

>  <path>  (350) 
/opt/xchem-fragalysis-2/maxwin/BulkDock/SCRATCH/511022/C8686-P107/C8686-P107.minimised.mol

>  <scratch_subdir>  (350) 
/opt/xchem-fragalysis-2/maxwin/BulkDock/SCRATCH/511022/C8686-P107

>  <fragmenstein_runtime>  (350) 
14.54348349571228

>  <fragmenstein_outcome>  (350) 
too moved

>  <fragmenstein_mode>  (350) 
expansion

>  <fragmenstein_error>  (350) 


$$$$
C8692-P114
     RDKit          3D

 37 39  0  0  0  0  0  0  0  0999 V2000
    8.5214   -9.8147   27.1547 C   0  0  0  0  0  0  0  0  0  0  0  0
    7.7769  -10.9806   26.7536 N   0  0  0  0  0  0  0  0  0  0  0  0
    7.6491  -11.4621   25.4899 C   0  0  0  0  0  0  0  0  0  0  0  0
    6.9407  -12.5706   25.4955 N   0  0  0  0  0  0  0  0  0  0  0  0
    6.6035  -12.8546   26.8208 C   0  0  0  0  0  0  0  0  0  0  0  0
    5.8244  -14.1634   27.1381 C   0  0  0  0  0  0  0  0  0  0  0  0
    5.2057  -14.4299   28.5841 C   0  0  0  0  0  0  0  0  0  0  0  0
    4.0054  -15.4213   28.7518 N   0  0  0  0  0  0  0  0  0  0  0  0
    3.2281  -15.7938   29.9354 C   0  0  0  0  0  0  0  0  0  0  0  0
    3.3717  -15.4900   31.0889 O   0  0  0  0  0  0  0  0  0  0  0  0
    1.8560  -16.6735   29.7543 C   0  0  0  0  0  0  0  0  0  0  0  0
    0.9131  -16.5588   30.9636 C   0  0  0  0  0  0  0  0  0  0  0  0
   -0.2296  -17.2600   30.9626 C   0  0  0  0  0  0  0  0  0  0  0  0
   -0.5266  -18.0407   29.8701 N   0  0  0  0  0  0  0  0  0  0  0  0
   -1.6310  -18.8200   29.6345 C   0  0  0  0  0  0  0  0  0  0  0  0
   -1.4322  -19.3357   28.3808 C   0  0  0  0  0  0  0  0  0  0  0  0
   -0.2380  -18.8900   27.8539 N   0  0  0  0  0  0  0  0  0  0  0  0
    0.3336  -18.1192   28.7684 C   0  0  0  0  0  0  0  0  0  0  0  0
    1.5550  -17.4259   28.7200 N   0  0  0  0  0  0  0  0  0  0  0  0
    6.3812  -14.7772   29.5352 C   0  0  0  0  0  0  0  0  0  0  0  0
    7.5627  -14.6128   29.2592 O   0  0  0  0  0  0  0  0  0  0  0  0
    6.0351  -15.1961   30.7727 O   0  0  0  0  0  0  0  0  0  0  0  0
    7.1137  -11.8367   27.6035 C   0  0  0  0  0  0  0  0  0  0  0  0
    8.9652   -9.3424   26.2746 H   0  0  0  0  0  0  0  0  0  0  0  0
    7.8345   -9.1191   27.6434 H   0  0  0  0  0  0  0  0  0  0  0  0
    9.3077  -10.1267   27.8467 H   0  0  0  0  0  0  0  0  0  0  0  0
    8.0848  -10.9919   24.6179 H   0  0  0  0  0  0  0  0  0  0  0  0
    5.0158  -14.2630   26.4075 H   0  0  0  0  0  0  0  0  0  0  0  0
    6.5088  -14.9937   26.9150 H   0  0  0  0  0  0  0  0  0  0  0  0
    4.8021  -13.4803   28.9576 H   0  0  0  0  0  0  0  0  0  0  0  0
    3.6478  -15.9298   27.9468 H   0  0  0  0  0  0  0  0  0  0  0  0
    1.1967  -15.9236   31.7936 H   0  0  0  0  0  0  0  0  0  0  0  0
   -0.9410  -17.2386   31.7786 H   0  0  0  0  0  0  0  0  0  0  0  0
   -2.4332  -18.9290   30.3506 H   0  0  0  0  0  0  0  0  0  0  0  0
   -2.0761  -20.0022   27.8216 H   0  0  0  0  0  0  0  0  0  0  0  0
    5.0756  -15.1970   30.9807 H   0  0  0  0  0  0  0  0  0  0  0  0
    7.1100  -11.6807   28.6737 H   0  0  0  0  0  0  0  0  0  0  0  0
  1  2  1  0
  2  3  1  0
  3  4  2  0
  4  5  1  0
  5  6  1  0
  6  7  1  0
  7  8  1  0
  8  9  1  0
  9 10  2  0
  9 11  1  0
 11 12  1  0
 12 13  2  0
 13 14  1  0
 14 15  1  0
 15 16  2  0
 16 17  1  0
 17 18  2  0
 18 19  1  0
  7 20  1  0
 20 21  2  0
 20 22  1  0
  5 23  2  0
 23  2  1  0
 19 11  2  0
 18 14  1  0
  1 24  1  0
  1 25  1  0
  1 26  1  0
  3 27  1  0
  6 28  1  0
  6 29  1  0
  7 30  1  0
  8 31  1  0
 12 32  1  0
 13 33  1  0
 15 34  1  0
 16 35  1  0
 22 36  1  0
 23 37  1  0
M  END
>  <Energy>  (351) 
90.484938801996989

>  <compound_id>  (351) 
8692

>  <target_id>  (351) 
1

>  <reference_id>  (351) 
114

>  <inspiration_ids>  (351) 
[114, 107]

>  <energy_score>  (351) 
-1.3362127306606908

>  <distance_score>  (351) 
14.724857694029682

>  <path>  (351) 
/opt/xchem-fragalysis-2/maxwin/BulkDock/SCRATCH/511022/C8692-P114/C8692-P114.minimised.mol

>  <scratch_subdir>  (351) 
/opt/xchem-fragalysis-2/maxwin/BulkDock/SCRATCH/511022/C8692-P114

>  <fragmenstein_runtime>  (351) 
26.352707147598267

>  <fragmenstein_outcome>  (351) 
too moved

>  <fragmenstein_mode>  (351) 
expansion

>  <fragmenstein_error>  (351) 


$$$$
C8692-P107
     RDKit          3D

 37 39  0  0  0  0  0  0  0  0999 V2000
    0.9184   -5.4928   21.4236 C   0  0  0  0  0  0  0  0  0  0  0  0
   -0.0688   -6.4434   21.8590 N   0  0  0  0  0  0  0  0  0  0  0  0
   -0.3358   -7.6525   21.2958 C   0  0  0  0  0  0  0  0  0  0  0  0
   -1.3312   -8.2562   21.9162 N   0  0  0  0  0  0  0  0  0  0  0  0
   -1.7372   -7.4123   22.9289 C   0  0  0  0  0  0  0  0  0  0  0  0
   -2.8674   -7.7969   23.9073 C   0  0  0  0  0  0  0  0  0  0  0  0
   -4.0127   -8.7448   23.3536 C   0  0  0  0  0  0  0  0  0  0  0  0
   -4.8596   -9.6979   24.2295 N   0  0  0  0  0  0  0  0  0  0  0  0
   -4.4674  -10.6801   25.2241 C   0  0  0  0  0  0  0  0  0  0  0  0
   -3.3914  -10.9435   25.6768 O   0  0  0  0  0  0  0  0  0  0  0  0
   -5.6305  -11.6814   25.7544 C   0  0  0  0  0  0  0  0  0  0  0  0
   -6.4440  -12.4352   24.7220 C   0  0  0  0  0  0  0  0  0  0  0  0
   -7.1786  -13.4790   25.1528 C   0  0  0  0  0  0  0  0  0  0  0  0
   -7.2127  -13.7806   26.5046 N   0  0  0  0  0  0  0  0  0  0  0  0
   -7.8663  -14.7890   27.1743 C   0  0  0  0  0  0  0  0  0  0  0  0
   -7.5696  -14.5865   28.4996 C   0  0  0  0  0  0  0  0  0  0  0  0
   -6.7606  -13.4850   28.6500 N   0  0  0  0  0  0  0  0  0  0  0  0
   -6.5271  -13.0061   27.4382 C   0  0  0  0  0  0  0  0  0  0  0  0
   -5.7204  -11.9524   27.0406 N   0  0  0  0  0  0  0  0  0  0  0  0
   -5.0744   -7.9000   22.6365 C   0  0  0  0  0  0  0  0  0  0  0  0
   -6.2873   -8.0344   22.7577 O   0  0  0  0  0  0  0  0  0  0  0  0
   -4.5937   -6.9738   21.7899 O   0  0  0  0  0  0  0  0  0  0  0  0
   -0.9341   -6.2796   22.9096 C   0  0  0  0  0  0  0  0  0  0  0  0
    1.2731   -5.7639   20.4261 H   0  0  0  0  0  0  0  0  0  0  0  0
    0.4605   -4.5007   21.3912 H   0  0  0  0  0  0  0  0  0  0  0  0
    1.7458   -5.5053   22.1371 H   0  0  0  0  0  0  0  0  0  0  0  0
    0.2022   -8.0560   20.4472 H   0  0  0  0  0  0  0  0  0  0  0  0
   -2.4311   -8.2509   24.7996 H   0  0  0  0  0  0  0  0  0  0  0  0
   -3.3286   -6.8633   24.2576 H   0  0  0  0  0  0  0  0  0  0  0  0
   -3.5906   -9.4067   22.5922 H   0  0  0  0  0  0  0  0  0  0  0  0
   -5.8736   -9.6940   24.1479 H   0  0  0  0  0  0  0  0  0  0  0  0
   -6.3848  -12.1402   23.6846 H   0  0  0  0  0  0  0  0  0  0  0  0
   -7.7656  -14.0984   24.4877 H   0  0  0  0  0  0  0  0  0  0  0  0
   -8.4626  -15.5305   26.6652 H   0  0  0  0  0  0  0  0  0  0  0  0
   -7.8873  -15.1647   29.3573 H   0  0  0  0  0  0  0  0  0  0  0  0
   -5.3866   -6.5733   21.3781 H   0  0  0  0  0  0  0  0  0  0  0  0
   -0.9184   -5.4010   23.5390 H   0  0  0  0  0  0  0  0  0  0  0  0
  1  2  1  0
  2  3  1  0
  3  4  2  0
  4  5  1  0
  5  6  1  0
  6  7  1  0
  7  8  1  0
  8  9  1  0
  9 10  2  0
  9 11  1  0
 11 12  1  0
 12 13  2  0
 13 14  1  0
 14 15  1  0
 15 16  2  0
 16 17  1  0
 17 18  2  0
 18 19  1  0
  7 20  1  0
 20 21  2  0
 20 22  1  0
  5 23  2  0
 23  2  1  0
 19 11  2  0
 18 14  1  0
  1 24  1  0
  1 25  1  0
  1 26  1  0
  3 27  1  0
  6 28  1  0
  6 29  1  0
  7 30  1  0
  8 31  1  0
 12 32  1  0
 13 33  1  0
 15 34  1  0
 16 35  1  0
 22 36  1  0
 23 37  1  0
M  END
>  <Energy>  (352) 
88.821266220791145

>  <compound_id>  (352) 
8692

>  <target_id>  (352) 
1

>  <reference_id>  (352) 
107

>  <inspiration_ids>  (352) 
[114, 107]

>  <energy_score>  (352) 
-2.9998853118671605

>  <distance_score>  (352) 
14.063943480859407

>  <path>  (352) 
/opt/xchem-fragalysis-2/maxwin/BulkDock/SCRATCH/511022/C8692-P107/C8692-P107.minimised.mol

>  <scratch_subdir>  (352) 
/opt/xchem-fragalysis-2/maxwin/BulkDock/SCRATCH/511022/C8692-P107

>  <fragmenstein_runtime>  (352) 
26.477932453155518

>  <fragmenstein_outcome>  (352) 
too moved

>  <fragmenstein_mode>  (352) 
expansion

>  <fragmenstein_error>  (352) 


$$$$
C8693-P114
     RDKit          3D

 28 30  0  0  0  0  0  0  0  0999 V2000
   -1.5786  -17.1841   26.0511 C   0  0  0  0  0  0  0  0  0  0  0  0
   -2.2166  -18.4742   26.0515 N   0  0  0  0  0  0  0  0  0  0  0  0
   -2.0676  -19.4488   25.1139 C   0  0  0  0  0  0  0  0  0  0  0  0
   -2.8056  -20.5070   25.4118 N   0  0  0  0  0  0  0  0  0  0  0  0
   -3.4785  -20.2298   26.5881 C   0  0  0  0  0  0  0  0  0  0  0  0
   -4.4480  -21.0389   27.2146 N   0  0  0  0  0  0  0  0  0  0  0  0
   -4.9456  -22.3989   26.8785 C   0  0  0  0  0  0  0  0  0  0  0  0
   -4.5853  -23.1748   26.0362 O   0  0  0  0  0  0  0  0  0  0  0  0
   -6.3292  -22.9772   27.7003 C   0  0  0  0  0  0  0  0  0  0  0  0
   -6.2028  -24.4674   28.6918 C   0  0  0  0  0  0  0  0  0  0  0  0
   -7.7880  -25.1543   28.9854 C   0  0  0  0  0  0  0  0  0  0  0  0
   -8.9800  -24.4596   28.6487 N   0  0  0  0  0  0  0  0  0  0  0  0
  -10.2785  -24.8434   28.7987 C   0  0  0  0  0  0  0  0  0  0  0  0
  -10.9774  -23.7004   28.5393 C   0  0  0  0  0  0  0  0  0  0  0  0
  -10.1383  -22.6888   28.1687 N   0  0  0  0  0  0  0  0  0  0  0  0
   -8.8990  -23.1837   28.0637 C   0  0  0  0  0  0  0  0  0  0  0  0
   -7.5988  -22.5124   27.5523 N   0  0  0  0  0  0  0  0  0  0  0  0
   -3.1030  -18.9506   26.9912 C   0  0  0  0  0  0  0  0  0  0  0  0
   -1.3532  -16.8937   25.0217 H   0  0  0  0  0  0  0  0  0  0  0  0
   -0.6584  -17.2585   26.6355 H   0  0  0  0  0  0  0  0  0  0  0  0
   -2.2548  -16.4512   26.4985 H   0  0  0  0  0  0  0  0  0  0  0  0
   -1.4271  -19.3553   24.2460 H   0  0  0  0  0  0  0  0  0  0  0  0
   -4.9220  -20.7073   28.0270 H   0  0  0  0  0  0  0  0  0  0  0  0
   -5.2681  -24.5672   29.2943 H   0  0  0  0  0  0  0  0  0  0  0  0
   -8.0423  -26.1857   28.7012 H   0  0  0  0  0  0  0  0  0  0  0  0
  -10.5717  -25.8213   29.1489 H   0  0  0  0  0  0  0  0  0  0  0  0
  -12.0297  -23.5281   28.6265 H   0  0  0  0  0  0  0  0  0  0  0  0
   -3.4057  -18.3523   27.8387 H   0  0  0  0  0  0  0  0  0  0  0  0
  1  2  1  0
  2  3  1  0
  3  4  2  0
  4  5  1  0
  5  6  1  0
  6  7  1  0
  7  8  2  0
  7  9  1  0
  9 10  1  0
 10 11  2  0
 11 12  1  0
 12 13  1  0
 13 14  2  0
 14 15  1  0
 15 16  2  0
 16 17  1  0
  5 18  2  0
 18  2  1  0
 17  9  2  0
 16 12  1  0
  1 19  1  0
  1 20  1  0
  1 21  1  0
  3 22  1  0
  6 23  1  0
 10 24  1  0
 11 25  1  0
 13 26  1  0
 14 27  1  0
 18 28  1  0
M  END
>  <Energy>  (353) 
198.63512631867192

>  <compound_id>  (353) 
8693

>  <target_id>  (353) 
1

>  <reference_id>  (353) 
114

>  <inspiration_ids>  (353) 
[114, 107]

>  <energy_score>  (353) 
133.16951997940936

>  <distance_score>  (353) 
15.745020289941243

>  <path>  (353) 
/opt/xchem-fragalysis-2/maxwin/BulkDock/SCRATCH/511022/C8693-P114/C8693-P114.minimised.mol

>  <scratch_subdir>  (353) 
/opt/xchem-fragalysis-2/maxwin/BulkDock/SCRATCH/511022/C8693-P114

>  <fragmenstein_runtime>  (353) 
13.404006481170654

>  <fragmenstein_outcome>  (353) 
too moved

>  <fragmenstein_mode>  (353) 
expansion

>  <fragmenstein_error>  (353) 


$$$$
C8693-P107
     RDKit          3D

 28 30  0  0  0  0  0  0  0  0999 V2000
    2.0977   -9.4983   21.7068 C   0  0  0  0  0  0  0  0  0  0  0  0
    3.0396  -10.9754   22.7835 N   0  0  0  0  0  0  0  0  0  0  0  0
    1.9874  -11.8100   23.4282 C   0  0  0  0  0  0  0  0  0  0  0  0
    2.2817  -12.5819   24.3782 N   0  0  0  0  0  0  0  0  0  0  0  0
    2.6114  -13.5180   23.6185 C   0  0  0  0  0  0  0  0  0  0  0  0
    1.0638  -14.4735   23.5796 N   0  0  0  0  0  0  0  0  0  0  0  0
   -0.0436  -14.7631   24.7652 C   0  0  0  0  0  0  0  0  0  0  0  0
   -0.1052  -14.3300   25.9082 O   0  0  0  0  0  0  0  0  0  0  0  0
   -1.2113  -15.8625   24.5316 C   0  0  0  0  0  0  0  0  0  0  0  0
   -0.9409  -17.1989   23.8892 C   0  0  0  0  0  0  0  0  0  0  0  0
   -1.7751  -18.2106   24.2156 C   0  0  0  0  0  0  0  0  0  0  0  0
   -2.8617  -17.9817   25.0515 N   0  0  0  0  0  0  0  0  0  0  0  0
   -3.7717  -18.8530   25.6035 C   0  0  0  0  0  0  0  0  0  0  0  0
   -4.5933  -18.0701   26.3784 C   0  0  0  0  0  0  0  0  0  0  0  0
   -4.2501  -16.7460   26.2612 N   0  0  0  0  0  0  0  0  0  0  0  0
   -3.1684  -16.7043   25.4979 C   0  0  0  0  0  0  0  0  0  0  0  0
   -2.3308  -15.6516   25.2125 N   0  0  0  0  0  0  0  0  0  0  0  0
    3.3352  -12.5214   22.5107 C   0  0  0  0  0  0  0  0  0  0  0  0
    1.1242  -10.0549   21.4541 H   0  0  0  0  0  0  0  0  0  0  0  0
    2.5435   -8.7273   22.4115 H   0  0  0  0  0  0  0  0  0  0  0  0
    1.2091   -8.8337   22.0970 H   0  0  0  0  0  0  0  0  0  0  0  0
    1.0008  -11.6262   22.9861 H   0  0  0  0  0  0  0  0  0  0  0  0
    0.8647  -15.0559   22.7791 H   0  0  0  0  0  0  0  0  0  0  0  0
   -0.0733  -17.3320   23.2621 H   0  0  0  0  0  0  0  0  0  0  0  0
   -1.6302  -19.2239   23.8626 H   0  0  0  0  0  0  0  0  0  0  0  0
   -3.7294  -19.9174   25.4282 H   0  0  0  0  0  0  0  0  0  0  0  0
   -5.4128  -18.3817   27.0121 H   0  0  0  0  0  0  0  0  0  0  0  0
    3.6408  -12.7689   21.4945 H   0  0  0  0  0  0  0  0  0  0  0  0
  1  2  1  0
  2  3  1  0
  3  4  2  0
  4  5  1  0
  5  6  1  0
  6  7  1  0
  7  8  2  0
  7  9  1  0
  9 10  1  0
 10 11  2  0
 11 12  1  0
 12 13  1  0
 13 14  2  0
 14 15  1  0
 15 16  2  0
 16 17  1  0
  5 18  2  0
 18  2  1  0
 17  9  2  0
 16 12  1  0
  1 19  1  0
  1 20  1  0
  1 21  1  0
  3 22  1  0
  6 23  1  0
 10 24  1  0
 11 25  1  0
 13 26  1  0
 14 27  1  0
 18 28  1  0
M  END
>  <Energy>  (354) 
480.60887022838284

>  <compound_id>  (354) 
8693

>  <target_id>  (354) 
1

>  <reference_id>  (354) 
107

>  <inspiration_ids>  (354) 
[114, 107]

>  <energy_score>  (354) 
415.14326388911456

>  <distance_score>  (354) 
14.057101836975521

>  <path>  (354) 
/opt/xchem-fragalysis-2/maxwin/BulkDock/SCRATCH/511022/C8693-P107/C8693-P107.minimised.mol

>  <scratch_subdir>  (354) 
/opt/xchem-fragalysis-2/maxwin/BulkDock/SCRATCH/511022/C8693-P107

>  <fragmenstein_runtime>  (354) 
15.554252862930298

>  <fragmenstein_outcome>  (354) 
too moved

>  <fragmenstein_mode>  (354) 
expansion

>  <fragmenstein_error>  (354) 


$$$$
C8694-P114
     RDKit          3D

 39 42  0  0  0  0  0  0  0  0999 V2000
    1.7612  -19.5874   15.2616 C   0  0  0  0  0  0  0  0  0  0  0  0
    0.5140  -20.0405   15.6214 C   0  0  0  0  0  0  0  0  0  0  0  0
    0.5488  -20.2362   16.9895 N   0  0  0  0  0  0  0  0  0  0  0  0
   -0.5447  -20.8200   17.7854 C   0  0  0  0  0  0  0  0  0  0  0  0
   -0.7263  -20.4416   19.3046 C   0  0  0  0  0  0  0  0  0  0  0  0
   -0.5324  -21.6364   20.2806 C   0  0  0  0  0  0  0  0  0  0  0  0
   -1.8361  -22.2249   20.8842 C   0  0  0  0  0  0  0  0  0  0  0  0
   -2.6538  -21.2202   21.6013 N   0  0  0  0  0  0  0  0  0  0  0  0
   -3.1860  -21.4488   22.9004 C   0  0  0  0  0  0  0  0  0  0  0  0
   -3.5771  -22.8601   23.3168 C   0  0  0  0  0  0  0  0  0  0  0  0
   -3.9087  -23.0696   24.5979 C   0  0  0  0  0  0  0  0  0  0  0  0
   -3.9357  -22.0027   25.4712 N   0  0  0  0  0  0  0  0  0  0  0  0
   -4.1672  -21.9629   26.8228 C   0  0  0  0  0  0  0  0  0  0  0  0
   -4.0990  -20.6326   27.1600 C   0  0  0  0  0  0  0  0  0  0  0  0
   -3.8589  -19.8625   26.0485 N   0  0  0  0  0  0  0  0  0  0  0  0
   -3.7029  -20.7028   25.0391 C   0  0  0  0  0  0  0  0  0  0  0  0
   -3.3364  -20.4411   23.7417 N   0  0  0  0  0  0  0  0  0  0  0  0
   -2.4608  -19.8434   21.1037 C   0  0  0  0  0  0  0  0  0  0  0  0
   -2.1115  -19.8138   19.5984 C   0  0  0  0  0  0  0  0  0  0  0  0
    1.8351  -19.9812   17.3590 C   0  0  0  0  0  0  0  0  0  0  0  0
    2.5701  -19.5497   16.3495 N   0  0  0  0  0  0  0  0  0  0  0  0
    2.1097  -19.3086   14.2767 H   0  0  0  0  0  0  0  0  0  0  0  0
   -0.3821  -20.2190   15.0433 H   0  0  0  0  0  0  0  0  0  0  0  0
   -1.4593  -20.5520   17.2413 H   0  0  0  0  0  0  0  0  0  0  0  0
   -0.4178  -21.9039   17.6764 H   0  0  0  0  0  0  0  0  0  0  0  0
    0.0340  -19.6925   19.5573 H   0  0  0  0  0  0  0  0  0  0  0  0
    0.0438  -22.4368   19.8027 H   0  0  0  0  0  0  0  0  0  0  0  0
    0.0861  -21.2840   21.1181 H   0  0  0  0  0  0  0  0  0  0  0  0
   -2.4442  -22.6673   20.0868 H   0  0  0  0  0  0  0  0  0  0  0  0
   -1.5445  -23.0359   21.5605 H   0  0  0  0  0  0  0  0  0  0  0  0
   -3.5608  -23.6487   22.5788 H   0  0  0  0  0  0  0  0  0  0  0  0
   -4.1625  -24.0427   24.9820 H   0  0  0  0  0  0  0  0  0  0  0  0
   -4.3329  -22.8543   27.4039 H   0  0  0  0  0  0  0  0  0  0  0  0
   -4.2025  -20.1803   28.1388 H   0  0  0  0  0  0  0  0  0  0  0  0
   -3.3814  -19.2698   21.2588 H   0  0  0  0  0  0  0  0  0  0  0  0
   -1.6522  -19.3706   21.6682 H   0  0  0  0  0  0  0  0  0  0  0  0
   -2.1143  -18.7766   19.2423 H   0  0  0  0  0  0  0  0  0  0  0  0
   -2.8942  -20.3449   19.0418 H   0  0  0  0  0  0  0  0  0  0  0  0
    2.1851  -20.1590   18.3666 H   0  0  0  0  0  0  0  0  0  0  0  0
  1  2  2  0
  2  3  1  0
  3  4  1  0
  4  5  1  0
  5  6  1  0
  6  7  1  0
  7  8  1  0
  8  9  1  0
  9 10  1  0
 10 11  2  0
 11 12  1  0
 12 13  1  0
 13 14  2  0
 14 15  1  0
 15 16  2  0
 16 17  1  0
  8 18  1  0
 18 19  1  0
  3 20  1  0
 20 21  2  0
 21  1  1  0
 19  5  1  0
 17  9  2  0
 16 12  1  0
  1 22  1  0
  2 23  1  0
  4 24  1  0
  4 25  1  0
  5 26  1  0
  6 27  1  0
  6 28  1  0
  7 29  1  0
  7 30  1  0
 10 31  1  0
 11 32  1  0
 13 33  1  0
 14 34  1  0
 18 35  1  0
 18 36  1  0
 19 37  1  0
 19 38  1  0
 20 39  1  0
M  END
>  <Energy>  (355) 
16.616729351726608

>  <compound_id>  (355) 
8694

>  <target_id>  (355) 
1

>  <reference_id>  (355) 
114

>  <inspiration_ids>  (355) 
[114, 107]

>  <energy_score>  (355) 
-20.777363912554733

>  <distance_score>  (355) 
14.990666053505345

>  <path>  (355) 
/opt/xchem-fragalysis-2/maxwin/BulkDock/SCRATCH/511022/C8694-P114/C8694-P114.minimised.mol

>  <scratch_subdir>  (355) 
/opt/xchem-fragalysis-2/maxwin/BulkDock/SCRATCH/511022/C8694-P114

>  <fragmenstein_runtime>  (355) 
28.76996922492981

>  <fragmenstein_outcome>  (355) 
too moved

>  <fragmenstein_mode>  (355) 
expansion

>  <fragmenstein_error>  (355) 


$$$$
C8694-P107
     RDKit          3D

 39 42  0  0  0  0  0  0  0  0999 V2000
   -0.3453   -8.3825   18.6109 C   0  0  0  0  0  0  0  0  0  0  0  0
   -1.5479   -8.8913   19.0121 C   0  0  0  0  0  0  0  0  0  0  0  0
   -1.2867   -9.1412   20.3292 N   0  0  0  0  0  0  0  0  0  0  0  0
   -2.0400  -10.0450   21.0763 C   0  0  0  0  0  0  0  0  0  0  0  0
   -1.4686  -11.5132   21.1797 C   0  0  0  0  0  0  0  0  0  0  0  0
   -2.0832  -12.7099   20.4113 C   0  0  0  0  0  0  0  0  0  0  0  0
   -2.0221  -14.5352   21.0327 C   0  0  0  0  0  0  0  0  0  0  0  0
   -1.6494  -14.8831   22.9296 N   0  0  0  0  0  0  0  0  0  0  0  0
   -2.9230  -15.3416   24.1549 C   0  0  0  0  0  0  0  0  0  0  0  0
   -4.2164  -14.4942   24.6395 C   0  0  0  0  0  0  0  0  0  0  0  0
   -5.1817  -14.9923   25.4352 C   0  0  0  0  0  0  0  0  0  0  0  0
   -5.0420  -16.2466   25.9606 N   0  0  0  0  0  0  0  0  0  0  0  0
   -5.8427  -16.9632   26.8152 C   0  0  0  0  0  0  0  0  0  0  0  0
   -5.1407  -18.1156   27.0654 C   0  0  0  0  0  0  0  0  0  0  0  0
   -3.9619  -18.1215   26.3568 N   0  0  0  0  0  0  0  0  0  0  0  0
   -3.8957  -16.9629   25.7177 C   0  0  0  0  0  0  0  0  0  0  0  0
   -2.9061  -16.4679   24.8963 N   0  0  0  0  0  0  0  0  0  0  0  0
   -0.3273  -13.8889   23.2921 C   0  0  0  0  0  0  0  0  0  0  0  0
   -0.1891  -11.9854   22.5613 C   0  0  0  0  0  0  0  0  0  0  0  0
   -0.1044   -8.6204   20.7472 C   0  0  0  0  0  0  0  0  0  0  0  0
    0.5056   -8.1454   19.6971 N   0  0  0  0  0  0  0  0  0  0  0  0
    0.0010   -8.2539   17.5975 H   0  0  0  0  0  0  0  0  0  0  0  0
   -2.4265   -9.2569   18.5035 H   0  0  0  0  0  0  0  0  0  0  0  0
   -3.0488  -10.0673   20.6276 H   0  0  0  0  0  0  0  0  0  0  0  0
   -2.1796   -9.5385   22.0398 H   0  0  0  0  0  0  0  0  0  0  0  0
   -2.4016  -11.5350   21.6644 H   0  0  0  0  0  0  0  0  0  0  0  0
   -1.8988  -12.5590   19.3308 H   0  0  0  0  0  0  0  0  0  0  0  0
   -3.1495  -12.4040   20.3440 H   0  0  0  0  0  0  0  0  0  0  0  0
   -2.8350  -15.1549   20.6043 H   0  0  0  0  0  0  0  0  0  0  0  0
   -1.5824  -15.3021   20.3206 H   0  0  0  0  0  0  0  0  0  0  0  0
   -4.2987  -13.4355   24.4682 H   0  0  0  0  0  0  0  0  0  0  0  0
   -6.0313  -14.4060   25.7610 H   0  0  0  0  0  0  0  0  0  0  0  0
   -6.7866  -16.5875   27.1805 H   0  0  0  0  0  0  0  0  0  0  0  0
   -5.4067  -18.9354   27.7184 H   0  0  0  0  0  0  0  0  0  0  0  0
   -0.6826  -14.0317   24.3369 H   0  0  0  0  0  0  0  0  0  0  0  0
    0.6525  -14.2351   23.6537 H   0  0  0  0  0  0  0  0  0  0  0  0
   -0.1383  -10.8608   22.7391 H   0  0  0  0  0  0  0  0  0  0  0  0
    0.8981  -11.7090   22.5543 H   0  0  0  0  0  0  0  0  0  0  0  0
    0.2663   -8.6539   21.7600 H   0  0  0  0  0  0  0  0  0  0  0  0
  1  2  2  0
  2  3  1  0
  3  4  1  0
  4  5  1  0
  5  6  1  0
  6  7  1  0
  7  8  1  0
  8  9  1  0
  9 10  1  0
 10 11  2  0
 11 12  1  0
 12 13  1  0
 13 14  2  0
 14 15  1  0
 15 16  2  0
 16 17  1  0
  8 18  1  0
 18 19  1  0
  3 20  1  0
 20 21  2  0
 21  1  1  0
 19  5  1  0
 17  9  2  0
 16 12  1  0
  1 22  1  0
  2 23  1  0
  4 24  1  0
  4 25  1  0
  5 26  1  0
  6 27  1  0
  6 28  1  0
  7 29  1  0
  7 30  1  0
 10 31  1  0
 11 32  1  0
 13 33  1  0
 14 34  1  0
 18 35  1  0
 18 36  1  0
 19 37  1  0
 19 38  1  0
 20 39  1  0
M  END
>  <Energy>  (356) 
483.2384059638934

>  <compound_id>  (356) 
8694

>  <target_id>  (356) 
1

>  <reference_id>  (356) 
107

>  <inspiration_ids>  (356) 
[114, 107]

>  <energy_score>  (356) 
445.84431269961124

>  <distance_score>  (356) 
13.267822545316081

>  <path>  (356) 
/opt/xchem-fragalysis-2/maxwin/BulkDock/SCRATCH/511022/C8694-P107/C8694-P107.minimised.mol

>  <scratch_subdir>  (356) 
/opt/xchem-fragalysis-2/maxwin/BulkDock/SCRATCH/511022/C8694-P107

>  <fragmenstein_runtime>  (356) 
15.427640676498413

>  <fragmenstein_outcome>  (356) 
too moved

>  <fragmenstein_mode>  (356) 
expansion

>  <fragmenstein_error>  (356) 


$$$$
C8688-P114
     RDKit          3D

 33 36  0  0  0  0  0  0  0  0999 V2000
    3.5341   -4.3578   12.0986 C   0  0  0  0  0  0  0  0  0  0  0  0
    3.8529   -3.5840   13.1881 C   0  0  0  0  0  0  0  0  0  0  0  0
    3.5209   -4.3965   14.6516 S   0  0  0  0  0  0  0  0  0  0  0  0
    2.8878   -5.7682   13.8683 C   0  0  0  0  0  0  0  0  0  0  0  0
    1.9228   -6.8871   14.4975 C   0  0  0  0  0  0  0  0  0  0  0  0
    0.7508   -6.9856   13.8177 C   0  0  0  0  0  0  0  0  0  0  0  0
   -0.1259   -7.4935   14.7229 N   0  0  0  0  0  0  0  0  0  0  0  0
    0.4765   -8.0578   16.0182 C   0  0  0  0  0  0  0  0  0  0  0  0
   -0.3920   -8.4975   17.6590 C   0  0  0  0  0  0  0  0  0  0  0  0
   -1.7931   -9.5329   17.9819 N   0  0  0  0  0  0  0  0  0  0  0  0
   -2.5458  -10.0323   19.1233 C   0  0  0  0  0  0  0  0  0  0  0  0
   -2.6979   -9.3826   20.4744 C   0  0  0  0  0  0  0  0  0  0  0  0
   -3.6232   -9.8492   21.3390 C   0  0  0  0  0  0  0  0  0  0  0  0
   -4.3307  -11.0011   21.0419 N   0  0  0  0  0  0  0  0  0  0  0  0
   -5.2897  -11.6796   21.7667 C   0  0  0  0  0  0  0  0  0  0  0  0
   -5.5361  -12.8221   21.0450 C   0  0  0  0  0  0  0  0  0  0  0  0
   -4.7756  -12.8329   19.8951 N   0  0  0  0  0  0  0  0  0  0  0  0
   -4.0712  -11.7062   19.8758 C   0  0  0  0  0  0  0  0  0  0  0  0
   -3.2098  -11.1843   18.9151 N   0  0  0  0  0  0  0  0  0  0  0  0
    1.7736   -7.6013   15.7575 N   0  0  0  0  0  0  0  0  0  0  0  0
    2.9930   -5.6168   12.4904 C   0  0  0  0  0  0  0  0  0  0  0  0
    3.6752   -4.0378   11.0734 H   0  0  0  0  0  0  0  0  0  0  0  0
    4.2844   -2.5920   13.1962 H   0  0  0  0  0  0  0  0  0  0  0  0
    0.4080   -6.6217   12.8605 H   0  0  0  0  0  0  0  0  0  0  0  0
   -1.0191   -7.8412   14.4367 H   0  0  0  0  0  0  0  0  0  0  0  0
    0.5123   -8.8558   18.1544 H   0  0  0  0  0  0  0  0  0  0  0  0
   -0.5910   -7.6937   18.3302 H   0  0  0  0  0  0  0  0  0  0  0  0
   -1.6228  -10.4249   17.5499 H   0  0  0  0  0  0  0  0  0  0  0  0
   -2.0559   -8.5517   20.6964 H   0  0  0  0  0  0  0  0  0  0  0  0
   -3.8172   -9.3784   22.2932 H   0  0  0  0  0  0  0  0  0  0  0  0
   -5.6727  -11.3101   22.7057 H   0  0  0  0  0  0  0  0  0  0  0  0
   -6.2109  -13.6359   21.2763 H   0  0  0  0  0  0  0  0  0  0  0  0
    2.6446   -6.3610   11.7840 H   0  0  0  0  0  0  0  0  0  0  0  0
  1  2  2  0
  2  3  1  0
  3  4  1  0
  4  5  1  0
  5  6  2  0
  6  7  1  0
  7  8  1  0
  8  9  1  0
  9 10  1  0
 10 11  1  0
 11 12  1  0
 12 13  2  0
 13 14  1  0
 14 15  1  0
 15 16  2  0
 16 17  1  0
 17 18  2  0
 18 19  1  0
  8 20  2  0
  4 21  2  0
 21  1  1  0
 20  5  1  0
 19 11  2  0
 18 14  1  0
  1 22  1  0
  2 23  1  0
  6 24  1  0
  7 25  1  0
  9 26  1  0
  9 27  1  0
 10 28  1  0
 12 29  1  0
 13 30  1  0
 15 31  1  0
 16 32  1  0
 21 33  1  0
M  END
>  <Energy>  (357) 
157.3544638218776

>  <compound_id>  (357) 
8688

>  <target_id>  (357) 
1

>  <reference_id>  (357) 
114

>  <inspiration_ids>  (357) 
[114, 107]

>  <energy_score>  (357) 
85.05248364210524

>  <distance_score>  (357) 
16.502849404714787

>  <path>  (357) 
/opt/xchem-fragalysis-2/maxwin/BulkDock/SCRATCH/511022/C8688-P114/C8688-P114.minimised.mol

>  <scratch_subdir>  (357) 
/opt/xchem-fragalysis-2/maxwin/BulkDock/SCRATCH/511022/C8688-P114

>  <fragmenstein_runtime>  (357) 
10.597944498062134

>  <fragmenstein_outcome>  (357) 
too moved

>  <fragmenstein_mode>  (357) 
expansion

>  <fragmenstein_error>  (357) 


$$$$
C8688-P107
     RDKit          3D

 33 36  0  0  0  0  0  0  0  0999 V2000
    5.2493   -5.3042   15.9712 C   0  0  0  0  0  0  0  0  0  0  0  0
    6.2587   -6.1671   16.3553 C   0  0  0  0  0  0  0  0  0  0  0  0
    5.8485   -6.4683   17.9659 S   0  0  0  0  0  0  0  0  0  0  0  0
    4.3673   -6.9078   17.4098 C   0  0  0  0  0  0  0  0  0  0  0  0
    2.6393   -8.1111   17.6639 C   0  0  0  0  0  0  0  0  0  0  0  0
    1.6990   -7.9568   16.6063 C   0  0  0  0  0  0  0  0  0  0  0  0
    0.4143   -8.2846   17.0113 N   0  0  0  0  0  0  0  0  0  0  0  0
    0.3746   -8.6030   18.3492 C   0  0  0  0  0  0  0  0  0  0  0  0
   -1.2402   -8.9411   19.1874 C   0  0  0  0  0  0  0  0  0  0  0  0
   -2.0880  -10.3179   19.0987 N   0  0  0  0  0  0  0  0  0  0  0  0
   -3.1020  -10.9576   19.9106 C   0  0  0  0  0  0  0  0  0  0  0  0
   -3.5004  -12.3775   19.4248 C   0  0  0  0  0  0  0  0  0  0  0  0
   -4.4740  -13.0645   20.0472 C   0  0  0  0  0  0  0  0  0  0  0  0
   -5.0811  -12.5042   21.1527 N   0  0  0  0  0  0  0  0  0  0  0  0
   -6.0028  -13.0442   22.0231 C   0  0  0  0  0  0  0  0  0  0  0  0
   -6.1253  -12.1177   23.0279 C   0  0  0  0  0  0  0  0  0  0  0  0
   -5.3205  -11.0241   22.7787 N   0  0  0  0  0  0  0  0  0  0  0  0
   -4.6991  -11.2424   21.6242 C   0  0  0  0  0  0  0  0  0  0  0  0
   -3.7245  -10.4725   20.9715 N   0  0  0  0  0  0  0  0  0  0  0  0
    1.7483   -8.6034   18.7388 N   0  0  0  0  0  0  0  0  0  0  0  0
    4.2983   -6.1950   16.0356 C   0  0  0  0  0  0  0  0  0  0  0  0
    5.2185   -4.4272   15.3378 H   0  0  0  0  0  0  0  0  0  0  0  0
    7.2453   -6.2838   15.9820 H   0  0  0  0  0  0  0  0  0  0  0  0
    1.8386   -7.6037   15.5886 H   0  0  0  0  0  0  0  0  0  0  0  0
   -0.4025   -8.2701   16.4140 H   0  0  0  0  0  0  0  0  0  0  0  0
   -1.0496   -8.7379   20.2467 H   0  0  0  0  0  0  0  0  0  0  0  0
   -1.9111   -8.2241   18.7234 H   0  0  0  0  0  0  0  0  0  0  0  0
   -1.3877  -10.9871   18.7934 H   0  0  0  0  0  0  0  0  0  0  0  0
   -2.9812  -12.7641   18.5561 H   0  0  0  0  0  0  0  0  0  0  0  0
   -4.7892  -14.0532   19.7412 H   0  0  0  0  0  0  0  0  0  0  0  0
   -6.4464  -14.0157   21.8633 H   0  0  0  0  0  0  0  0  0  0  0  0
   -6.7406  -12.1671   23.9169 H   0  0  0  0  0  0  0  0  0  0  0  0
    3.4791   -6.2529   15.3151 H   0  0  0  0  0  0  0  0  0  0  0  0
  1  2  2  0
  2  3  1  0
  3  4  1  0
  4  5  1  0
  5  6  2  0
  6  7  1  0
  7  8  1  0
  8  9  1  0
  9 10  1  0
 10 11  1  0
 11 12  1  0
 12 13  2  0
 13 14  1  0
 14 15  1  0
 15 16  2  0
 16 17  1  0
 17 18  2  0
 18 19  1  0
  8 20  2  0
  4 21  2  0
 21  1  1  0
 20  5  1  0
 19 11  2  0
 18 14  1  0
  1 22  1  0
  2 23  1  0
  6 24  1  0
  7 25  1  0
  9 26  1  0
  9 27  1  0
 10 28  1  0
 12 29  1  0
 13 30  1  0
 15 31  1  0
 16 32  1  0
 21 33  1  0
M  END
>  <Energy>  (358) 
214.89154755290681

>  <compound_id>  (358) 
8688

>  <target_id>  (358) 
1

>  <reference_id>  (358) 
107

>  <inspiration_ids>  (358) 
[114, 107]

>  <energy_score>  (358) 
142.5895673731377

>  <distance_score>  (358) 
15.462315268460225

>  <path>  (358) 
/opt/xchem-fragalysis-2/maxwin/BulkDock/SCRATCH/511022/C8688-P107/C8688-P107.minimised.mol

>  <scratch_subdir>  (358) 
/opt/xchem-fragalysis-2/maxwin/BulkDock/SCRATCH/511022/C8688-P107

>  <fragmenstein_runtime>  (358) 
13.50445008277893

>  <fragmenstein_outcome>  (358) 
too moved

>  <fragmenstein_mode>  (358) 
expansion

>  <fragmenstein_error>  (358) 


$$$$
C8695-P114
     RDKit          3D

 36 40  0  0  0  0  0  0  0  0999 V2000
   -1.2538  -17.2645   21.3001 O   0  0  0  0  0  0  0  0  0  0  0  0
   -1.8620  -16.7719   22.1767 C   0  0  0  0  0  0  0  0  0  0  0  0
   -3.2548  -17.4449   22.4518 C   0  0  0  0  0  0  0  0  0  0  0  0
   -3.1612  -18.9578   22.5812 C   0  0  0  0  0  0  0  0  0  0  0  0
   -4.3154  -19.6385   22.5329 C   0  0  0  0  0  0  0  0  0  0  0  0
   -5.4975  -18.9306   22.4281 N   0  0  0  0  0  0  0  0  0  0  0  0
   -6.7677  -19.3769   22.1703 C   0  0  0  0  0  0  0  0  0  0  0  0
   -7.5523  -18.2508   22.1857 C   0  0  0  0  0  0  0  0  0  0  0  0
   -6.7968  -17.1348   22.4597 N   0  0  0  0  0  0  0  0  0  0  0  0
   -5.5379  -17.5380   22.5122 C   0  0  0  0  0  0  0  0  0  0  0  0
   -4.3792  -16.7862   22.5207 N   0  0  0  0  0  0  0  0  0  0  0  0
   -1.5089  -15.6832   23.1481 N   0  0  0  0  0  0  0  0  0  0  0  0
    0.1274  -14.9029   23.3450 C   0  0  0  0  0  0  0  0  0  0  0  0
    0.3112  -16.0970   24.5811 C   0  0  0  0  0  0  0  0  0  0  0  0
    1.4670  -15.6419   23.7910 C   0  0  0  0  0  0  0  0  0  0  0  0
   -0.1423  -14.6026   23.2923 C   0  0  0  0  0  0  0  0  0  0  0  0
   -0.2962  -12.5773   22.5921 C   0  0  0  0  0  0  0  0  0  0  0  0
   -1.3928  -11.9805   21.4052 N   0  0  0  0  0  0  0  0  0  0  0  0
   -1.3022  -10.6163   21.1550 C   0  0  0  0  0  0  0  0  0  0  0  0
   -0.2243  -10.1512   21.8205 C   0  0  0  0  0  0  0  0  0  0  0  0
    0.3980  -11.2302   22.5206 N   0  0  0  0  0  0  0  0  0  0  0  0
   -0.2782  -14.8260   25.1530 C   0  0  0  0  0  0  0  0  0  0  0  0
   -2.1847  -19.4228   22.6209 H   0  0  0  0  0  0  0  0  0  0  0  0
   -4.3705  -20.7195   22.5293 H   0  0  0  0  0  0  0  0  0  0  0  0
   -6.9955  -20.4192   21.9973 H   0  0  0  0  0  0  0  0  0  0  0  0
   -8.6213  -18.1839   22.0268 H   0  0  0  0  0  0  0  0  0  0  0  0
    1.0694  -13.9548   24.0910 H   0  0  0  0  0  0  0  0  0  0  0  0
    0.6580  -15.4956   22.1427 H   0  0  0  0  0  0  0  0  0  0  0  0
    0.8790  -16.5648   25.3868 H   0  0  0  0  0  0  0  0  0  0  0  0
    1.8863  -16.4362   23.1441 H   0  0  0  0  0  0  0  0  0  0  0  0
    2.3082  -15.2112   24.3691 H   0  0  0  0  0  0  0  0  0  0  0  0
   -1.9833  -10.1161   20.4806 H   0  0  0  0  0  0  0  0  0  0  0  0
    0.2250   -9.1687   21.8068 H   0  0  0  0  0  0  0  0  0  0  0  0
    1.2761  -11.2320   22.9877 H   0  0  0  0  0  0  0  0  0  0  0  0
   -1.2879  -14.9107   25.5696 H   0  0  0  0  0  0  0  0  0  0  0  0
    0.3791  -14.3157   25.8709 H   0  0  0  0  0  0  0  0  0  0  0  0
  1  2  2  0
  2  3  1  0
  3  4  1  0
  4  5  2  0
  5  6  1  0
  6  7  1  0
  7  8  2  0
  8  9  1  0
  9 10  2  0
 10 11  1  0
  2 12  1  0
 12 13  1  0
 13 14  1  0
 14 15  1  0
 15 16  1  0
 16 17  1  0
 17 18  2  0
 18 19  1  0
 19 20  2  0
 20 21  1  0
 16 22  1  0
 11  3  2  0
 16 12  1  0
 21 17  1  0
 10  6  1  0
 22 14  1  0
  4 23  1  0
  5 24  1  0
  7 25  1  0
  8 26  1  0
 13 27  1  0
 13 28  1  0
 14 29  1  0
 15 30  1  0
 15 31  1  0
 19 32  1  0
 20 33  1  0
 21 34  1  0
 22 35  1  0
 22 36  1  0
M  END
>  <Energy>  (359) 
1064.1058978988819

>  <compound_id>  (359) 
8695

>  <target_id>  (359) 
1

>  <reference_id>  (359) 
114

>  <inspiration_ids>  (359) 
[114, 107]

>  <energy_score>  (359) 
924.3461756820351

>  <distance_score>  (359) 
14.048171321235886

>  <path>  (359) 
/opt/xchem-fragalysis-2/maxwin/BulkDock/SCRATCH/511022/C8695-P114/C8695-P114.minimised.mol

>  <scratch_subdir>  (359) 
/opt/xchem-fragalysis-2/maxwin/BulkDock/SCRATCH/511022/C8695-P114

>  <fragmenstein_runtime>  (359) 
18.386812210083008

>  <fragmenstein_outcome>  (359) 
too moved

>  <fragmenstein_mode>  (359) 
expansion

>  <fragmenstein_error>  (359) 


$$$$
C8695-P107
     RDKit          3D

 36 40  0  0  0  0  0  0  0  0999 V2000
    3.2631  -17.7263   21.4081 O   0  0  0  0  0  0  0  0  0  0  0  0
    2.3512  -17.2752   20.8367 C   0  0  0  0  0  0  0  0  0  0  0  0
    0.8864  -17.7278   21.4535 C   0  0  0  0  0  0  0  0  0  0  0  0
    0.7959  -19.2211   21.7701 C   0  0  0  0  0  0  0  0  0  0  0  0
   -0.2697  -19.6608   22.4656 C   0  0  0  0  0  0  0  0  0  0  0  0
   -1.2589  -18.7643   22.8322 N   0  0  0  0  0  0  0  0  0  0  0  0
   -2.4123  -18.9666   23.5559 C   0  0  0  0  0  0  0  0  0  0  0  0
   -3.0298  -17.7411   23.5933 C   0  0  0  0  0  0  0  0  0  0  0  0
   -2.2903  -16.8000   22.9056 N   0  0  0  0  0  0  0  0  0  0  0  0
   -1.1930  -17.4156   22.4708 C   0  0  0  0  0  0  0  0  0  0  0  0
   -0.0902  -16.9043   21.7870 N   0  0  0  0  0  0  0  0  0  0  0  0
    2.2500  -16.3610   19.5028 N   0  0  0  0  0  0  0  0  0  0  0  0
    3.3978  -16.0458   18.6426 C   0  0  0  0  0  0  0  0  0  0  0  0
    2.9413  -16.5940   17.1098 C   0  0  0  0  0  0  0  0  0  0  0  0
    2.5332  -15.1898   17.3310 C   0  0  0  0  0  0  0  0  0  0  0  0
    3.6126  -15.4095   18.2976 C   0  0  0  0  0  0  0  0  0  0  0  0
    3.7461  -13.3420   18.3096 C   0  0  0  0  0  0  0  0  0  0  0  0
    2.8617  -12.3443   18.0556 N   0  0  0  0  0  0  0  0  0  0  0  0
    3.0042  -10.8592   17.3097 C   0  0  0  0  0  0  0  0  0  0  0  0
    3.4232  -11.5739   16.3253 C   0  0  0  0  0  0  0  0  0  0  0  0
    4.0923  -12.1063   17.5608 N   0  0  0  0  0  0  0  0  0  0  0  0
    4.3844  -16.3691   17.0939 C   0  0  0  0  0  0  0  0  0  0  0  0
    1.6197  -19.8535   21.4646 H   0  0  0  0  0  0  0  0  0  0  0  0
   -0.3932  -20.6941   22.7622 H   0  0  0  0  0  0  0  0  0  0  0  0
   -2.6764  -19.9320   23.9611 H   0  0  0  0  0  0  0  0  0  0  0  0
   -3.9661  -17.4785   24.0686 H   0  0  0  0  0  0  0  0  0  0  0  0
    3.4726  -17.2674   18.8213 H   0  0  0  0  0  0  0  0  0  0  0  0
    4.5281  -16.5434   19.2228 H   0  0  0  0  0  0  0  0  0  0  0  0
    2.4061  -17.5421   17.1545 H   0  0  0  0  0  0  0  0  0  0  0  0
    1.7780  -14.4791   16.9451 H   0  0  0  0  0  0  0  0  0  0  0  0
    1.8796  -14.7865   18.1464 H   0  0  0  0  0  0  0  0  0  0  0  0
    2.5786   -9.9298   17.6897 H   0  0  0  0  0  0  0  0  0  0  0  0
    3.8413  -11.4712   15.3218 H   0  0  0  0  0  0  0  0  0  0  0  0
    4.7103  -11.5103   18.1218 H   0  0  0  0  0  0  0  0  0  0  0  0
    4.8019  -16.1004   16.1447 H   0  0  0  0  0  0  0  0  0  0  0  0
    5.0057  -17.2254   17.4109 H   0  0  0  0  0  0  0  0  0  0  0  0
  1  2  2  0
  2  3  1  0
  3  4  1  0
  4  5  2  0
  5  6  1  0
  6  7  1  0
  7  8  2  0
  8  9  1  0
  9 10  2  0
 10 11  1  0
  2 12  1  0
 12 13  1  0
 13 14  1  0
 14 15  1  0
 15 16  1  0
 16 17  1  0
 17 18  2  0
 18 19  1  0
 19 20  2  0
 20 21  1  0
 16 22  1  0
 11  3  2  0
 16 12  1  0
 21 17  1  0
 10  6  1  0
 22 14  1  0
  4 23  1  0
  5 24  1  0
  7 25  1  0
  8 26  1  0
 13 27  1  0
 13 28  1  0
 14 29  1  0
 15 30  1  0
 15 31  1  0
 19 32  1  0
 20 33  1  0
 21 34  1  0
 22 35  1  0
 22 36  1  0
M  END
>  <Energy>  (360) 
1146.6174685871772

>  <compound_id>  (360) 
8695

>  <target_id>  (360) 
1

>  <reference_id>  (360) 
107

>  <inspiration_ids>  (360) 
[114, 107]

>  <energy_score>  (360) 
1006.8577463703396

>  <distance_score>  (360) 
14.464496701958474

>  <path>  (360) 
/opt/xchem-fragalysis-2/maxwin/BulkDock/SCRATCH/511022/C8695-P107/C8695-P107.minimised.mol

>  <scratch_subdir>  (360) 
/opt/xchem-fragalysis-2/maxwin/BulkDock/SCRATCH/511022/C8695-P107

>  <fragmenstein_runtime>  (360) 
28.924420833587646

>  <fragmenstein_outcome>  (360) 
too moved

>  <fragmenstein_mode>  (360) 
expansion

>  <fragmenstein_error>  (360) 


$$$$
C8696-P114
     RDKit          3D

 32 34  0  0  0  0  0  0  0  0999 V2000
    4.2712  -16.0711   30.7359 O   0  0  0  0  0  0  0  0  0  0  0  0
    3.8256  -15.8576   29.6417 C   0  0  0  0  0  0  0  0  0  0  0  0
    4.2881  -14.9472   28.5799 N   0  0  0  0  0  0  0  0  0  0  0  0
    5.4221  -13.9077   28.5672 C   0  0  0  0  0  0  0  0  0  0  0  0
    6.3131  -13.7725   27.2488 C   0  0  0  0  0  0  0  0  0  0  0  0
    5.4915  -14.2369   26.1681 O   0  0  0  0  0  0  0  0  0  0  0  0
    7.0127  -12.4489   26.8271 C   0  0  0  0  0  0  0  0  0  0  0  0
    8.0608  -12.3115   25.9182 C   0  0  0  0  0  0  0  0  0  0  0  0
    8.2735  -10.9691   25.7520 N   0  0  0  0  0  0  0  0  0  0  0  0
    7.3942  -10.3272   26.5721 C   0  0  0  0  0  0  0  0  0  0  0  0
    6.6082  -11.1795   27.2055 N   0  0  0  0  0  0  0  0  0  0  0  0
    2.4301  -16.6555   29.3936 C   0  0  0  0  0  0  0  0  0  0  0  0
    2.4859  -17.9654   28.6422 C   0  0  0  0  0  0  0  0  0  0  0  0
    1.3658  -18.7190   28.6366 C   0  0  0  0  0  0  0  0  0  0  0  0
    0.2187  -18.2648   29.2763 N   0  0  0  0  0  0  0  0  0  0  0  0
   -1.0195  -18.8485   29.4164 C   0  0  0  0  0  0  0  0  0  0  0  0
   -1.7708  -17.9368   30.1185 C   0  0  0  0  0  0  0  0  0  0  0  0
   -1.0250  -16.8153   30.4017 N   0  0  0  0  0  0  0  0  0  0  0  0
    0.1887  -17.0272   29.9138 C   0  0  0  0  0  0  0  0  0  0  0  0
    1.3235  -16.2348   29.9754 N   0  0  0  0  0  0  0  0  0  0  0  0
    3.6250  -14.9619   27.8202 H   0  0  0  0  0  0  0  0  0  0  0  0
    4.9240  -12.9538   28.7656 H   0  0  0  0  0  0  0  0  0  0  0  0
    6.0644  -14.1081   29.4315 H   0  0  0  0  0  0  0  0  0  0  0  0
    7.1086  -14.5225   27.3469 H   0  0  0  0  0  0  0  0  0  0  0  0
    4.7535  -13.5948   26.1211 H   0  0  0  0  0  0  0  0  0  0  0  0
    8.6462  -13.0461   25.3810 H   0  0  0  0  0  0  0  0  0  0  0  0
    8.9764  -10.5363   25.1673 H   0  0  0  0  0  0  0  0  0  0  0  0
    7.3639   -9.2495   26.6660 H   0  0  0  0  0  0  0  0  0  0  0  0
    3.4198  -18.2664   28.1876 H   0  0  0  0  0  0  0  0  0  0  0  0
    1.3131  -19.6869   28.1538 H   0  0  0  0  0  0  0  0  0  0  0  0
   -1.2452  -19.8276   29.0210 H   0  0  0  0  0  0  0  0  0  0  0  0
   -2.8030  -18.0198   30.4359 H   0  0  0  0  0  0  0  0  0  0  0  0
  1  2  2  0
  2  3  1  0
  3  4  1  0
  4  5  1  0
  5  6  1  0
  5  7  1  0
  7  8  2  0
  8  9  1  0
  9 10  1  0
 10 11  2  0
  2 12  1  0
 12 13  1  0
 13 14  2  0
 14 15  1  0
 15 16  1  0
 16 17  2  0
 17 18  1  0
 18 19  2  0
 19 20  1  0
 11  7  1  0
 20 12  2  0
 19 15  1  0
  3 21  1  0
  4 22  1  0
  4 23  1  0
  5 24  1  0
  6 25  1  0
  8 26  1  0
  9 27  1  0
 10 28  1  0
 13 29  1  0
 14 30  1  0
 16 31  1  0
 17 32  1  0
M  END
>  <Energy>  (361) 
114.22124654282646

>  <compound_id>  (361) 
8696

>  <target_id>  (361) 
1

>  <reference_id>  (361) 
114

>  <inspiration_ids>  (361) 
[114, 107]

>  <energy_score>  (361) 
-2.494802880269731

>  <distance_score>  (361) 
14.770811981580998

>  <path>  (361) 
/opt/xchem-fragalysis-2/maxwin/BulkDock/SCRATCH/511022/C8696-P114/C8696-P114.minimised.mol

>  <scratch_subdir>  (361) 
/opt/xchem-fragalysis-2/maxwin/BulkDock/SCRATCH/511022/C8696-P114

>  <fragmenstein_runtime>  (361) 
17.35864758491516

>  <fragmenstein_outcome>  (361) 
too moved

>  <fragmenstein_mode>  (361) 
expansion

>  <fragmenstein_error>  (361) 


$$$$
C8696-P107
     RDKit          3D

 32 34  0  0  0  0  0  0  0  0999 V2000
   -2.6107  -13.3087   25.6802 O   0  0  0  0  0  0  0  0  0  0  0  0
   -2.3539  -14.4210   25.2943 C   0  0  0  0  0  0  0  0  0  0  0  0
   -1.0860  -14.9618   24.4549 N   0  0  0  0  0  0  0  0  0  0  0  0
    0.5485  -14.0751   23.8832 C   0  0  0  0  0  0  0  0  0  0  0  0
    2.3956  -13.1380   23.8404 C   0  0  0  0  0  0  0  0  0  0  0  0
    2.0064  -11.9675   24.3244 O   0  0  0  0  0  0  0  0  0  0  0  0
    3.3823  -12.5094   22.3710 C   0  0  0  0  0  0  0  0  0  0  0  0
    3.5715  -13.1573   21.1558 C   0  0  0  0  0  0  0  0  0  0  0  0
    4.6357  -12.7958   20.3548 N   0  0  0  0  0  0  0  0  0  0  0  0
    5.1841  -11.7517   20.9671 C   0  0  0  0  0  0  0  0  0  0  0  0
    4.3577  -11.4153   22.1125 N   0  0  0  0  0  0  0  0  0  0  0  0
   -3.4430  -15.4671   25.8510 C   0  0  0  0  0  0  0  0  0  0  0  0
   -3.1279  -15.9553   27.2652 C   0  0  0  0  0  0  0  0  0  0  0  0
   -4.0619  -16.6520   27.9242 C   0  0  0  0  0  0  0  0  0  0  0  0
   -5.2962  -16.8051   27.3388 N   0  0  0  0  0  0  0  0  0  0  0  0
   -6.4560  -17.2653   27.9053 C   0  0  0  0  0  0  0  0  0  0  0  0
   -7.4298  -16.9031   27.0141 C   0  0  0  0  0  0  0  0  0  0  0  0
   -6.8760  -16.4232   25.8464 N   0  0  0  0  0  0  0  0  0  0  0  0
   -5.5709  -16.3256   26.0525 C   0  0  0  0  0  0  0  0  0  0  0  0
   -4.5901  -15.7212   25.2639 N   0  0  0  0  0  0  0  0  0  0  0  0
   -1.2235  -15.9156   24.2298 H   0  0  0  0  0  0  0  0  0  0  0  0
    0.7232  -14.0052   24.9640 H   0  0  0  0  0  0  0  0  0  0  0  0
    1.2408  -14.7366   23.3702 H   0  0  0  0  0  0  0  0  0  0  0  0
    3.2000  -13.6776   24.3467 H   0  0  0  0  0  0  0  0  0  0  0  0
    1.4932  -12.1462   25.1323 H   0  0  0  0  0  0  0  0  0  0  0  0
    2.9271  -13.9262   20.7966 H   0  0  0  0  0  0  0  0  0  0  0  0
    4.9015  -13.2888   19.5152 H   0  0  0  0  0  0  0  0  0  0  0  0
    6.1477  -11.3538   20.6909 H   0  0  0  0  0  0  0  0  0  0  0  0
   -2.1981  -15.6691   27.7358 H   0  0  0  0  0  0  0  0  0  0  0  0
   -3.9368  -17.0028   28.9415 H   0  0  0  0  0  0  0  0  0  0  0  0
   -6.4924  -17.6864   28.9012 H   0  0  0  0  0  0  0  0  0  0  0  0
   -8.5023  -16.9869   27.1312 H   0  0  0  0  0  0  0  0  0  0  0  0
  1  2  2  0
  2  3  1  0
  3  4  1  0
  4  5  1  0
  5  6  1  0
  5  7  1  0
  7  8  2  0
  8  9  1  0
  9 10  1  0
 10 11  2  0
  2 12  1  0
 12 13  1  0
 13 14  2  0
 14 15  1  0
 15 16  1  0
 16 17  2  0
 17 18  1  0
 18 19  2  0
 19 20  1  0
 11  7  1  0
 20 12  2  0
 19 15  1  0
  3 21  1  0
  4 22  1  0
  4 23  1  0
  5 24  1  0
  6 25  1  0
  8 26  1  0
  9 27  1  0
 10 28  1  0
 13 29  1  0
 14 30  1  0
 16 31  1  0
 17 32  1  0
M  END
>  <Energy>  (362) 
433.97208064184304

>  <compound_id>  (362) 
8696

>  <target_id>  (362) 
1

>  <reference_id>  (362) 
107

>  <inspiration_ids>  (362) 
[114, 107]

>  <energy_score>  (362) 
317.2560312187403

>  <distance_score>  (362) 
12.599162391080126

>  <path>  (362) 
/opt/xchem-fragalysis-2/maxwin/BulkDock/SCRATCH/511022/C8696-P107/C8696-P107.minimised.mol

>  <scratch_subdir>  (362) 
/opt/xchem-fragalysis-2/maxwin/BulkDock/SCRATCH/511022/C8696-P107

>  <fragmenstein_runtime>  (362) 
17.780483722686768

>  <fragmenstein_outcome>  (362) 
too moved

>  <fragmenstein_mode>  (362) 
expansion

>  <fragmenstein_error>  (362) 


$$$$
C8697-P114
     RDKit          3D

 32 35  0  0  0  0  0  0  0  0999 V2000
   -1.9308  -11.8638   19.4377 O   0  0  0  0  0  0  0  0  0  0  0  0
   -1.5987  -12.1283   20.5787 C   0  0  0  0  0  0  0  0  0  0  0  0
   -2.1765  -14.1049   21.0397 C   0  0  0  0  0  0  0  0  0  0  0  0
   -2.5071  -15.6722   20.1641 C   0  0  0  0  0  0  0  0  0  0  0  0
   -3.5488  -16.5961   20.4829 C   0  0  0  0  0  0  0  0  0  0  0  0
   -4.3240  -16.6298   21.7556 N   0  0  0  0  0  0  0  0  0  0  0  0
   -5.3668  -17.4080   22.2203 C   0  0  0  0  0  0  0  0  0  0  0  0
   -5.5521  -17.0640   23.5515 C   0  0  0  0  0  0  0  0  0  0  0  0
   -4.6402  -16.1187   23.9934 N   0  0  0  0  0  0  0  0  0  0  0  0
   -3.9020  -15.8486   22.9352 C   0  0  0  0  0  0  0  0  0  0  0  0
   -2.5486  -14.7704   22.5755 N   0  0  0  0  0  0  0  0  0  0  0  0
   -0.5271  -10.7613   21.4411 N   0  0  0  0  0  0  0  0  0  0  0  0
    0.2112   -9.1630   20.8199 C   0  0  0  0  0  0  0  0  0  0  0  0
    0.7024   -8.4610   22.2413 C   0  0  0  0  0  0  0  0  0  0  0  0
    2.6319   -8.2445   23.1392 C   0  0  0  0  0  0  0  0  0  0  0  0
    4.3039   -7.9459   23.0907 C   0  0  0  0  0  0  0  0  0  0  0  0
    5.2023   -7.4155   24.1380 N   0  0  0  0  0  0  0  0  0  0  0  0
    4.3693   -6.8320   24.8518 C   0  0  0  0  0  0  0  0  0  0  0  0
    3.1385   -7.0906   24.2102 N   0  0  0  0  0  0  0  0  0  0  0  0
   -0.9777   -9.4617   22.3405 C   0  0  0  0  0  0  0  0  0  0  0  0
   -1.8475  -15.8209   19.3254 H   0  0  0  0  0  0  0  0  0  0  0  0
   -3.7502  -17.4384   19.8310 H   0  0  0  0  0  0  0  0  0  0  0  0
   -5.8690  -18.1157   21.5774 H   0  0  0  0  0  0  0  0  0  0  0  0
   -6.2931  -17.4643   24.2311 H   0  0  0  0  0  0  0  0  0  0  0  0
    1.1692   -9.3229   20.3547 H   0  0  0  0  0  0  0  0  0  0  0  0
   -0.5012   -8.6415   20.1677 H   0  0  0  0  0  0  0  0  0  0  0  0
    0.4654   -7.4037   22.2821 H   0  0  0  0  0  0  0  0  0  0  0  0
    4.8699   -7.9270   22.2353 H   0  0  0  0  0  0  0  0  0  0  0  0
    4.5243   -6.1356   25.6653 H   0  0  0  0  0  0  0  0  0  0  0  0
    2.3497   -6.4994   24.4142 H   0  0  0  0  0  0  0  0  0  0  0  0
   -1.6968   -8.9567   21.6263 H   0  0  0  0  0  0  0  0  0  0  0  0
   -1.8389   -9.3201   22.9981 H   0  0  0  0  0  0  0  0  0  0  0  0
  1  2  2  0
  2  3  1  0
  3  4  1  0
  4  5  2  0
  5  6  1  0
  6  7  1  0
  7  8  2  0
  8  9  1  0
  9 10  2  0
 10 11  1  0
  2 12  1  0
 12 13  1  0
 13 14  1  0
 14 15  1  0
 15 16  2  0
 16 17  1  0
 17 18  2  0
 18 19  1  0
 14 20  1  0
 11  3  2  0
 20 12  1  0
 10  6  1  0
 19 15  1  0
  4 21  1  0
  5 22  1  0
  7 23  1  0
  8 24  1  0
 13 25  1  0
 13 26  1  0
 14 27  1  0
 16 28  1  0
 18 29  1  0
 19 30  1  0
 20 31  1  0
 20 32  1  0
M  END
>  <Energy>  (363) 
914.56199499277818

>  <compound_id>  (363) 
8697

>  <target_id>  (363) 
1

>  <reference_id>  (363) 
114

>  <inspiration_ids>  (363) 
[114, 107]

>  <energy_score>  (363) 
756.3827543741204

>  <distance_score>  (363) 
14.204374810267621

>  <path>  (363) 
/opt/xchem-fragalysis-2/maxwin/BulkDock/SCRATCH/511022/C8697-P114/C8697-P114.minimised.mol

>  <scratch_subdir>  (363) 
/opt/xchem-fragalysis-2/maxwin/BulkDock/SCRATCH/511022/C8697-P114

>  <fragmenstein_runtime>  (363) 
18.785887479782104

>  <fragmenstein_outcome>  (363) 
too moved

>  <fragmenstein_mode>  (363) 
expansion

>  <fragmenstein_error>  (363) 


$$$$
C8697-P107
     RDKit          3D

 32 35  0  0  0  0  0  0  0  0999 V2000
    1.2005  -13.7974   26.4943 O   0  0  0  0  0  0  0  0  0  0  0  0
    0.7001  -13.7127   25.4231 C   0  0  0  0  0  0  0  0  0  0  0  0
   -1.4000  -14.0638   25.3606 C   0  0  0  0  0  0  0  0  0  0  0  0
   -2.2384  -15.2642   24.4626 C   0  0  0  0  0  0  0  0  0  0  0  0
   -3.5261  -15.7155   24.5670 C   0  0  0  0  0  0  0  0  0  0  0  0
   -4.1837  -15.5896   25.7490 N   0  0  0  0  0  0  0  0  0  0  0  0
   -5.4014  -16.0169   26.2071 C   0  0  0  0  0  0  0  0  0  0  0  0
   -5.3980  -15.6756   27.5398 C   0  0  0  0  0  0  0  0  0  0  0  0
   -4.2160  -15.0505   27.8669 N   0  0  0  0  0  0  0  0  0  0  0  0
   -3.4952  -15.0147   26.7591 C   0  0  0  0  0  0  0  0  0  0  0  0
   -2.1876  -14.6650   26.5388 N   0  0  0  0  0  0  0  0  0  0  0  0
    1.7295  -13.4676   23.9787 N   0  0  0  0  0  0  0  0  0  0  0  0
    3.2195  -13.4439   23.8174 C   0  0  0  0  0  0  0  0  0  0  0  0
    3.3678  -12.2824   22.7708 C   0  0  0  0  0  0  0  0  0  0  0  0
    4.9617  -11.0558   22.4205 C   0  0  0  0  0  0  0  0  0  0  0  0
    6.2723  -11.0480   23.2816 C   0  0  0  0  0  0  0  0  0  0  0  0
    7.4700  -11.2362   22.5367 N   0  0  0  0  0  0  0  0  0  0  0  0
    7.1723  -11.4428   21.2744 C   0  0  0  0  0  0  0  0  0  0  0  0
    5.8074  -11.4754   21.0279 N   0  0  0  0  0  0  0  0  0  0  0  0
    2.0353  -11.9990   23.5632 C   0  0  0  0  0  0  0  0  0  0  0  0
   -1.6007  -15.2622   23.6118 H   0  0  0  0  0  0  0  0  0  0  0  0
   -4.0820  -16.2214   23.7921 H   0  0  0  0  0  0  0  0  0  0  0  0
   -6.1225  -16.5173   25.5798 H   0  0  0  0  0  0  0  0  0  0  0  0
   -6.1669  -15.8427   28.2833 H   0  0  0  0  0  0  0  0  0  0  0  0
    3.7397  -13.6733   24.7433 H   0  0  0  0  0  0  0  0  0  0  0  0
    3.3413  -14.4521   23.3714 H   0  0  0  0  0  0  0  0  0  0  0  0
    3.3869  -12.7397   21.7783 H   0  0  0  0  0  0  0  0  0  0  0  0
    6.3923  -11.0833   24.3510 H   0  0  0  0  0  0  0  0  0  0  0  0
    7.9082  -11.5357   20.4954 H   0  0  0  0  0  0  0  0  0  0  0  0
    5.3296  -11.9029   20.2416 H   0  0  0  0  0  0  0  0  0  0  0  0
    1.9940  -11.6987   24.5693 H   0  0  0  0  0  0  0  0  0  0  0  0
    1.1926  -11.6626   22.9434 H   0  0  0  0  0  0  0  0  0  0  0  0
  1  2  2  0
  2  3  1  0
  3  4  1  0
  4  5  2  0
  5  6  1  0
  6  7  1  0
  7  8  2  0
  8  9  1  0
  9 10  2  0
 10 11  1  0
  2 12  1  0
 12 13  1  0
 13 14  1  0
 14 15  1  0
 15 16  2  0
 16 17  1  0
 17 18  2  0
 18 19  1  0
 14 20  1  0
 11  3  2  0
 20 12  1  0
 10  6  1  0
 19 15  1  0
  4 21  1  0
  5 22  1  0
  7 23  1  0
  8 24  1  0
 13 25  1  0
 13 26  1  0
 14 27  1  0
 16 28  1  0
 18 29  1  0
 19 30  1  0
 20 31  1  0
 20 32  1  0
M  END
>  <Energy>  (364) 
517.70899171604196

>  <compound_id>  (364) 
8697

>  <target_id>  (364) 
1

>  <reference_id>  (364) 
107

>  <inspiration_ids>  (364) 
[114, 107]

>  <energy_score>  (364) 
359.52975109738384

>  <distance_score>  (364) 
13.305319546621837

>  <path>  (364) 
/opt/xchem-fragalysis-2/maxwin/BulkDock/SCRATCH/511022/C8697-P107/C8697-P107.minimised.mol

>  <scratch_subdir>  (364) 
/opt/xchem-fragalysis-2/maxwin/BulkDock/SCRATCH/511022/C8697-P107

>  <fragmenstein_runtime>  (364) 
20.615382194519043

>  <fragmenstein_outcome>  (364) 
too moved

>  <fragmenstein_mode>  (364) 
expansion

>  <fragmenstein_error>  (364) 


$$$$
C8695-P114
     RDKit          3D

 36 40  0  0  0  0  0  0  0  0999 V2000
   -1.2538  -17.2645   21.3001 O   0  0  0  0  0  0  0  0  0  0  0  0
   -1.8620  -16.7719   22.1767 C   0  0  0  0  0  0  0  0  0  0  0  0
   -3.2548  -17.4449   22.4518 C   0  0  0  0  0  0  0  0  0  0  0  0
   -3.1612  -18.9578   22.5812 C   0  0  0  0  0  0  0  0  0  0  0  0
   -4.3154  -19.6385   22.5329 C   0  0  0  0  0  0  0  0  0  0  0  0
   -5.4975  -18.9306   22.4281 N   0  0  0  0  0  0  0  0  0  0  0  0
   -6.7677  -19.3769   22.1703 C   0  0  0  0  0  0  0  0  0  0  0  0
   -7.5523  -18.2508   22.1857 C   0  0  0  0  0  0  0  0  0  0  0  0
   -6.7968  -17.1348   22.4597 N   0  0  0  0  0  0  0  0  0  0  0  0
   -5.5379  -17.5380   22.5122 C   0  0  0  0  0  0  0  0  0  0  0  0
   -4.3792  -16.7862   22.5207 N   0  0  0  0  0  0  0  0  0  0  0  0
   -1.5089  -15.6832   23.1481 N   0  0  0  0  0  0  0  0  0  0  0  0
    0.1274  -14.9029   23.3450 C   0  0  0  0  0  0  0  0  0  0  0  0
    0.3112  -16.0970   24.5811 C   0  0  0  0  0  0  0  0  0  0  0  0
    1.4670  -15.6419   23.7910 C   0  0  0  0  0  0  0  0  0  0  0  0
   -0.1423  -14.6026   23.2923 C   0  0  0  0  0  0  0  0  0  0  0  0
   -0.2962  -12.5773   22.5921 C   0  0  0  0  0  0  0  0  0  0  0  0
   -1.3928  -11.9805   21.4052 N   0  0  0  0  0  0  0  0  0  0  0  0
   -1.3022  -10.6163   21.1550 C   0  0  0  0  0  0  0  0  0  0  0  0
   -0.2243  -10.1512   21.8205 C   0  0  0  0  0  0  0  0  0  0  0  0
    0.3980  -11.2302   22.5206 N   0  0  0  0  0  0  0  0  0  0  0  0
   -0.2782  -14.8260   25.1530 C   0  0  0  0  0  0  0  0  0  0  0  0
   -2.1847  -19.4228   22.6209 H   0  0  0  0  0  0  0  0  0  0  0  0
   -4.3705  -20.7195   22.5293 H   0  0  0  0  0  0  0  0  0  0  0  0
   -6.9955  -20.4192   21.9973 H   0  0  0  0  0  0  0  0  0  0  0  0
   -8.6213  -18.1839   22.0268 H   0  0  0  0  0  0  0  0  0  0  0  0
    1.0694  -13.9548   24.0910 H   0  0  0  0  0  0  0  0  0  0  0  0
    0.6580  -15.4956   22.1427 H   0  0  0  0  0  0  0  0  0  0  0  0
    0.8790  -16.5648   25.3868 H   0  0  0  0  0  0  0  0  0  0  0  0
    1.8863  -16.4362   23.1441 H   0  0  0  0  0  0  0  0  0  0  0  0
    2.3082  -15.2112   24.3691 H   0  0  0  0  0  0  0  0  0  0  0  0
   -1.9833  -10.1161   20.4806 H   0  0  0  0  0  0  0  0  0  0  0  0
    0.2250   -9.1687   21.8068 H   0  0  0  0  0  0  0  0  0  0  0  0
    1.2761  -11.2320   22.9877 H   0  0  0  0  0  0  0  0  0  0  0  0
   -1.2879  -14.9107   25.5696 H   0  0  0  0  0  0  0  0  0  0  0  0
    0.3791  -14.3157   25.8709 H   0  0  0  0  0  0  0  0  0  0  0  0
  1  2  2  0
  2  3  1  0
  3  4  1  0
  4  5  2  0
  5  6  1  0
  6  7  1  0
  7  8  2  0
  8  9  1  0
  9 10  2  0
 10 11  1  0
  2 12  1  0
 12 13  1  0
 13 14  1  0
 14 15  1  0
 15 16  1  0
 16 17  1  0
 17 18  2  0
 18 19  1  0
 19 20  2  0
 20 21  1  0
 16 22  1  0
 11  3  2  0
 16 12  1  0
 21 17  1  0
 10  6  1  0
 22 14  1  0
  4 23  1  0
  5 24  1  0
  7 25  1  0
  8 26  1  0
 13 27  1  0
 13 28  1  0
 14 29  1  0
 15 30  1  0
 15 31  1  0
 19 32  1  0
 20 33  1  0
 21 34  1  0
 22 35  1  0
 22 36  1  0
M  END
>  <Energy>  (365) 
1064.1058978988819

>  <compound_id>  (365) 
8695

>  <target_id>  (365) 
1

>  <reference_id>  (365) 
114

>  <inspiration_ids>  (365) 
[114, 107]

>  <energy_score>  (365) 
924.3461756820351

>  <distance_score>  (365) 
14.048171321235886

>  <path>  (365) 
/opt/xchem-fragalysis-2/maxwin/BulkDock/SCRATCH/511022/C8695-P114/C8695-P114.minimised.mol

>  <scratch_subdir>  (365) 
/opt/xchem-fragalysis-2/maxwin/BulkDock/SCRATCH/511022/C8695-P114

>  <fragmenstein_runtime>  (365) 
18.165639400482178

>  <fragmenstein_outcome>  (365) 
too moved

>  <fragmenstein_mode>  (365) 
expansion

>  <fragmenstein_error>  (365) 


$$$$
C8695-P107
     RDKit          3D

 36 40  0  0  0  0  0  0  0  0999 V2000
    3.2631  -17.7263   21.4081 O   0  0  0  0  0  0  0  0  0  0  0  0
    2.3512  -17.2752   20.8367 C   0  0  0  0  0  0  0  0  0  0  0  0
    0.8864  -17.7278   21.4535 C   0  0  0  0  0  0  0  0  0  0  0  0
    0.7959  -19.2211   21.7701 C   0  0  0  0  0  0  0  0  0  0  0  0
   -0.2697  -19.6608   22.4656 C   0  0  0  0  0  0  0  0  0  0  0  0
   -1.2589  -18.7643   22.8322 N   0  0  0  0  0  0  0  0  0  0  0  0
   -2.4123  -18.9666   23.5559 C   0  0  0  0  0  0  0  0  0  0  0  0
   -3.0298  -17.7411   23.5933 C   0  0  0  0  0  0  0  0  0  0  0  0
   -2.2903  -16.8000   22.9056 N   0  0  0  0  0  0  0  0  0  0  0  0
   -1.1930  -17.4156   22.4708 C   0  0  0  0  0  0  0  0  0  0  0  0
   -0.0902  -16.9043   21.7870 N   0  0  0  0  0  0  0  0  0  0  0  0
    2.2500  -16.3610   19.5028 N   0  0  0  0  0  0  0  0  0  0  0  0
    3.3978  -16.0458   18.6426 C   0  0  0  0  0  0  0  0  0  0  0  0
    2.9413  -16.5940   17.1098 C   0  0  0  0  0  0  0  0  0  0  0  0
    2.5332  -15.1898   17.3310 C   0  0  0  0  0  0  0  0  0  0  0  0
    3.6126  -15.4095   18.2976 C   0  0  0  0  0  0  0  0  0  0  0  0
    3.7461  -13.3420   18.3096 C   0  0  0  0  0  0  0  0  0  0  0  0
    2.8617  -12.3443   18.0556 N   0  0  0  0  0  0  0  0  0  0  0  0
    3.0042  -10.8592   17.3097 C   0  0  0  0  0  0  0  0  0  0  0  0
    3.4232  -11.5739   16.3253 C   0  0  0  0  0  0  0  0  0  0  0  0
    4.0923  -12.1063   17.5608 N   0  0  0  0  0  0  0  0  0  0  0  0
    4.3844  -16.3691   17.0939 C   0  0  0  0  0  0  0  0  0  0  0  0
    1.6197  -19.8535   21.4646 H   0  0  0  0  0  0  0  0  0  0  0  0
   -0.3932  -20.6941   22.7622 H   0  0  0  0  0  0  0  0  0  0  0  0
   -2.6764  -19.9320   23.9611 H   0  0  0  0  0  0  0  0  0  0  0  0
   -3.9661  -17.4785   24.0686 H   0  0  0  0  0  0  0  0  0  0  0  0
    3.4726  -17.2674   18.8213 H   0  0  0  0  0  0  0  0  0  0  0  0
    4.5281  -16.5434   19.2228 H   0  0  0  0  0  0  0  0  0  0  0  0
    2.4061  -17.5421   17.1545 H   0  0  0  0  0  0  0  0  0  0  0  0
    1.7780  -14.4791   16.9451 H   0  0  0  0  0  0  0  0  0  0  0  0
    1.8796  -14.7865   18.1464 H   0  0  0  0  0  0  0  0  0  0  0  0
    2.5786   -9.9298   17.6897 H   0  0  0  0  0  0  0  0  0  0  0  0
    3.8413  -11.4712   15.3218 H   0  0  0  0  0  0  0  0  0  0  0  0
    4.7103  -11.5103   18.1218 H   0  0  0  0  0  0  0  0  0  0  0  0
    4.8019  -16.1004   16.1447 H   0  0  0  0  0  0  0  0  0  0  0  0
    5.0057  -17.2254   17.4109 H   0  0  0  0  0  0  0  0  0  0  0  0
  1  2  2  0
  2  3  1  0
  3  4  1  0
  4  5  2  0
  5  6  1  0
  6  7  1  0
  7  8  2  0
  8  9  1  0
  9 10  2  0
 10 11  1  0
  2 12  1  0
 12 13  1  0
 13 14  1  0
 14 15  1  0
 15 16  1  0
 16 17  1  0
 17 18  2  0
 18 19  1  0
 19 20  2  0
 20 21  1  0
 16 22  1  0
 11  3  2  0
 16 12  1  0
 21 17  1  0
 10  6  1  0
 22 14  1  0
  4 23  1  0
  5 24  1  0
  7 25  1  0
  8 26  1  0
 13 27  1  0
 13 28  1  0
 14 29  1  0
 15 30  1  0
 15 31  1  0
 19 32  1  0
 20 33  1  0
 21 34  1  0
 22 35  1  0
 22 36  1  0
M  END
>  <Energy>  (366) 
1146.6174685871772

>  <compound_id>  (366) 
8695

>  <target_id>  (366) 
1

>  <reference_id>  (366) 
107

>  <inspiration_ids>  (366) 
[114, 107]

>  <energy_score>  (366) 
1006.8577463703396

>  <distance_score>  (366) 
14.464496701958474

>  <path>  (366) 
/opt/xchem-fragalysis-2/maxwin/BulkDock/SCRATCH/511022/C8695-P107/C8695-P107.minimised.mol

>  <scratch_subdir>  (366) 
/opt/xchem-fragalysis-2/maxwin/BulkDock/SCRATCH/511022/C8695-P107

>  <fragmenstein_runtime>  (366) 
31.375736713409424

>  <fragmenstein_outcome>  (366) 
too moved

>  <fragmenstein_mode>  (366) 
expansion

>  <fragmenstein_error>  (366) 


$$$$
C8698-P114
     RDKit          3D

 32 35  0  0  0  0  0  0  0  0999 V2000
   -1.6927  -13.1820   25.2550 O   0  0  0  0  0  0  0  0  0  0  0  0
   -0.8186  -13.8575   24.5992 C   0  0  0  0  0  0  0  0  0  0  0  0
   -0.7033  -15.2186   25.2503 C   0  0  0  0  0  0  0  0  0  0  0  0
   -2.1767  -15.8881   25.2142 C   0  0  0  0  0  0  0  0  0  0  0  0
   -2.5620  -16.7972   26.1116 C   0  0  0  0  0  0  0  0  0  0  0  0
   -1.7041  -17.0716   27.1385 N   0  0  0  0  0  0  0  0  0  0  0  0
   -1.9072  -17.8970   28.2135 C   0  0  0  0  0  0  0  0  0  0  0  0
   -0.7979  -17.7189   28.9950 C   0  0  0  0  0  0  0  0  0  0  0  0
    0.0701  -16.8205   28.4121 N   0  0  0  0  0  0  0  0  0  0  0  0
   -0.4745  -16.4141   27.2751 C   0  0  0  0  0  0  0  0  0  0  0  0
   -0.0113  -15.4452   26.3674 N   0  0  0  0  0  0  0  0  0  0  0  0
   -0.0821  -12.8930   22.9323 N   0  0  0  0  0  0  0  0  0  0  0  0
    1.4744  -11.7234   22.9551 C   0  0  0  0  0  0  0  0  0  0  0  0
    1.0529  -10.0477   21.6945 C   0  0  0  0  0  0  0  0  0  0  0  0
    2.4317   -8.5217   22.5879 C   0  0  0  0  0  0  0  0  0  0  0  0
    2.2693   -7.8185   23.7606 N   0  0  0  0  0  0  0  0  0  0  0  0
    3.6921   -7.0160   24.5467 C   0  0  0  0  0  0  0  0  0  0  0  0
    4.8084   -7.3398   23.9595 C   0  0  0  0  0  0  0  0  0  0  0  0
    4.1679   -8.1195   22.9201 N   0  0  0  0  0  0  0  0  0  0  0  0
   -0.3785  -10.9950   22.1890 C   0  0  0  0  0  0  0  0  0  0  0  0
   -2.9405  -15.4561   24.5802 H   0  0  0  0  0  0  0  0  0  0  0  0
   -3.5527  -17.2309   26.1468 H   0  0  0  0  0  0  0  0  0  0  0  0
   -2.7963  -18.4980   28.3352 H   0  0  0  0  0  0  0  0  0  0  0  0
   -0.5659  -18.1805   29.9463 H   0  0  0  0  0  0  0  0  0  0  0  0
    2.5276  -12.1579   22.8346 H   0  0  0  0  0  0  0  0  0  0  0  0
    1.7346  -11.7818   24.0317 H   0  0  0  0  0  0  0  0  0  0  0  0
    0.3817   -9.1799   21.5183 H   0  0  0  0  0  0  0  0  0  0  0  0
    3.6382   -6.3486   25.4092 H   0  0  0  0  0  0  0  0  0  0  0  0
    5.8552   -7.0748   24.0288 H   0  0  0  0  0  0  0  0  0  0  0  0
    4.8631   -8.2414   22.2512 H   0  0  0  0  0  0  0  0  0  0  0  0
   -1.1096  -11.1209   21.3394 H   0  0  0  0  0  0  0  0  0  0  0  0
   -0.8910  -10.1702   22.6846 H   0  0  0  0  0  0  0  0  0  0  0  0
  1  2  2  0
  2  3  1  0
  3  4  1  0
  4  5  2  0
  5  6  1  0
  6  7  1  0
  7  8  2  0
  8  9  1  0
  9 10  2  0
 10 11  1  0
  2 12  1  0
 12 13  1  0
 13 14  1  0
 14 15  1  0
 15 16  2  0
 16 17  1  0
 17 18  2  0
 18 19  1  0
 14 20  1  0
 11  3  2  0
 20 12  1  0
 10  6  1  0
 19 15  1  0
  4 21  1  0
  5 22  1  0
  7 23  1  0
  8 24  1  0
 13 25  1  0
 13 26  1  0
 14 27  1  0
 17 28  1  0
 18 29  1  0
 19 30  1  0
 20 31  1  0
 20 32  1  0
M  END
>  <Energy>  (367) 
888.44461817782746

>  <compound_id>  (367) 
8698

>  <target_id>  (367) 
1

>  <reference_id>  (367) 
114

>  <inspiration_ids>  (367) 
[114, 107]

>  <energy_score>  (367) 
780.0391711470903

>  <distance_score>  (367) 
13.407841841148443

>  <path>  (367) 
/opt/xchem-fragalysis-2/maxwin/BulkDock/SCRATCH/511022/C8698-P114/C8698-P114.minimised.mol

>  <scratch_subdir>  (367) 
/opt/xchem-fragalysis-2/maxwin/BulkDock/SCRATCH/511022/C8698-P114

>  <fragmenstein_runtime>  (367) 
19.26101517677307

>  <fragmenstein_outcome>  (367) 
too moved

>  <fragmenstein_mode>  (367) 
expansion

>  <fragmenstein_error>  (367) 


$$$$
C8698-P107
     RDKit          3D

 32 35  0  0  0  0  0  0  0  0999 V2000
    2.5160  -15.1661   27.8782 O   0  0  0  0  0  0  0  0  0  0  0  0
    1.9955  -15.5158   26.8427 C   0  0  0  0  0  0  0  0  0  0  0  0
    0.6523  -16.3718   27.0721 C   0  0  0  0  0  0  0  0  0  0  0  0
    0.8764  -17.8125   27.4946 C   0  0  0  0  0  0  0  0  0  0  0  0
   -0.2047  -18.5286   27.8545 C   0  0  0  0  0  0  0  0  0  0  0  0
   -1.4583  -17.9412   27.8075 N   0  0  0  0  0  0  0  0  0  0  0  0
   -2.6862  -18.4503   28.1580 C   0  0  0  0  0  0  0  0  0  0  0  0
   -3.5776  -17.4367   27.9081 C   0  0  0  0  0  0  0  0  0  0  0  0
   -2.9286  -16.3339   27.3965 N   0  0  0  0  0  0  0  0  0  0  0  0
   -1.6359  -16.6286   27.3633 C   0  0  0  0  0  0  0  0  0  0  0  0
   -0.5522  -15.8383   26.9959 N   0  0  0  0  0  0  0  0  0  0  0  0
    2.4354  -15.3456   25.4552 N   0  0  0  0  0  0  0  0  0  0  0  0
    1.8900  -14.0194   24.8472 C   0  0  0  0  0  0  0  0  0  0  0  0
    3.0178  -13.8774   23.8431 C   0  0  0  0  0  0  0  0  0  0  0  0
    3.4718  -12.5239   22.4279 C   0  0  0  0  0  0  0  0  0  0  0  0
    3.5638  -13.1242   21.2016 N   0  0  0  0  0  0  0  0  0  0  0  0
    4.6075  -12.7988   20.3187 C   0  0  0  0  0  0  0  0  0  0  0  0
    5.2866  -11.8020   20.8578 C   0  0  0  0  0  0  0  0  0  0  0  0
    4.3918  -11.4027   22.1246 N   0  0  0  0  0  0  0  0  0  0  0  0
    3.7718  -14.7531   24.8595 C   0  0  0  0  0  0  0  0  0  0  0  0
    1.8905  -18.1889   27.5219 H   0  0  0  0  0  0  0  0  0  0  0  0
   -0.1453  -19.5537   28.1969 H   0  0  0  0  0  0  0  0  0  0  0  0
   -2.8094  -19.4475   28.5546 H   0  0  0  0  0  0  0  0  0  0  0  0
   -4.6486  -17.4354   28.0656 H   0  0  0  0  0  0  0  0  0  0  0  0
    1.6565  -13.3468   25.6631 H   0  0  0  0  0  0  0  0  0  0  0  0
    0.9333  -14.2782   24.4481 H   0  0  0  0  0  0  0  0  0  0  0  0
    2.8513  -14.6504   23.0937 H   0  0  0  0  0  0  0  0  0  0  0  0
    4.7389  -13.2766   19.3689 H   0  0  0  0  0  0  0  0  0  0  0  0
    6.1510  -11.2666   20.5743 H   0  0  0  0  0  0  0  0  0  0  0  0
    4.8944  -10.7838   22.7456 H   0  0  0  0  0  0  0  0  0  0  0  0
    4.3916  -14.3445   25.6588 H   0  0  0  0  0  0  0  0  0  0  0  0
    4.3347  -15.5872   24.4221 H   0  0  0  0  0  0  0  0  0  0  0  0
  1  2  2  0
  2  3  1  0
  3  4  1  0
  4  5  2  0
  5  6  1  0
  6  7  1  0
  7  8  2  0
  8  9  1  0
  9 10  2  0
 10 11  1  0
  2 12  1  0
 12 13  1  0
 13 14  1  0
 14 15  1  0
 15 16  2  0
 16 17  1  0
 17 18  2  0
 18 19  1  0
 14 20  1  0
 11  3  2  0
 20 12  1  0
 10  6  1  0
 19 15  1  0
  4 21  1  0
  5 22  1  0
  7 23  1  0
  8 24  1  0
 13 25  1  0
 13 26  1  0
 14 27  1  0
 17 28  1  0
 18 29  1  0
 19 30  1  0
 20 31  1  0
 20 32  1  0
M  END
>  <Energy>  (368) 
224.06759141717521

>  <compound_id>  (368) 
8698

>  <target_id>  (368) 
1

>  <reference_id>  (368) 
107

>  <inspiration_ids>  (368) 
[114, 107]

>  <energy_score>  (368) 
115.66214438643885

>  <distance_score>  (368) 
13.634793500883733

>  <path>  (368) 
/opt/xchem-fragalysis-2/maxwin/BulkDock/SCRATCH/511022/C8698-P107/C8698-P107.minimised.mol

>  <scratch_subdir>  (368) 
/opt/xchem-fragalysis-2/maxwin/BulkDock/SCRATCH/511022/C8698-P107

>  <fragmenstein_runtime>  (368) 
33.549132347106934

>  <fragmenstein_outcome>  (368) 
too moved

>  <fragmenstein_mode>  (368) 
expansion

>  <fragmenstein_error>  (368) 


$$$$
C8699-P114
     RDKit          3D

 35 38  0  0  0  0  0  0  0  0999 V2000
   -4.4810  -17.6697   25.6530 O   0  0  0  0  0  0  0  0  0  0  0  0
   -3.9427  -17.2071   26.6311 C   0  0  0  0  0  0  0  0  0  0  0  0
   -4.8804  -17.8227   28.2551 C   0  0  0  0  0  0  0  0  0  0  0  0
   -4.2740  -18.4278   29.6619 C   0  0  0  0  0  0  0  0  0  0  0  0
   -4.8791  -19.1655   30.7175 C   0  0  0  0  0  0  0  0  0  0  0  0
   -6.3232  -19.6076   30.7886 N   0  0  0  0  0  0  0  0  0  0  0  0
   -7.5256  -21.0732   31.5918 C   0  0  0  0  0  0  0  0  0  0  0  0
   -9.4373  -20.8427   30.6966 C   0  0  0  0  0  0  0  0  0  0  0  0
   -8.7337  -19.5833   29.0309 N   0  0  0  0  0  0  0  0  0  0  0  0
   -7.1274  -18.9216   29.2476 C   0  0  0  0  0  0  0  0  0  0  0  0
   -6.2554  -18.1423   28.1917 N   0  0  0  0  0  0  0  0  0  0  0  0
   -2.4188  -16.2482   26.4115 N   0  0  0  0  0  0  0  0  0  0  0  0
   -2.7094  -14.8054   26.2198 C   0  0  0  0  0  0  0  0  0  0  0  0
   -1.3660  -13.8752   25.7349 C   0  0  0  0  0  0  0  0  0  0  0  0
   -0.5909  -14.3142   24.0904 C   0  0  0  0  0  0  0  0  0  0  0  0
   -0.2927  -12.7854   22.6898 C   0  0  0  0  0  0  0  0  0  0  0  0
    0.5405  -11.5575   22.6805 N   0  0  0  0  0  0  0  0  0  0  0  0
   -0.0714  -10.3175   21.8622 C   0  0  0  0  0  0  0  0  0  0  0  0
   -1.2387  -10.5793   21.2414 C   0  0  0  0  0  0  0  0  0  0  0  0
   -1.4038  -11.9330   21.3969 N   0  0  0  0  0  0  0  0  0  0  0  0
   -1.3800  -15.9105   24.9157 C   0  0  0  0  0  0  0  0  0  0  0  0
   -3.2041  -18.2378   29.7137 H   0  0  0  0  0  0  0  0  0  0  0  0
   -4.2950  -19.5553   31.5412 H   0  0  0  0  0  0  0  0  0  0  0  0
   -7.1723  -21.2798   32.6303 H   0  0  0  0  0  0  0  0  0  0  0  0
  -10.5011  -21.0570   30.8367 H   0  0  0  0  0  0  0  0  0  0  0  0
   -3.5209  -14.6915   25.4904 H   0  0  0  0  0  0  0  0  0  0  0  0
   -3.0625  -14.4189   27.1817 H   0  0  0  0  0  0  0  0  0  0  0  0
   -1.7494  -12.8581   25.8093 H   0  0  0  0  0  0  0  0  0  0  0  0
   -0.5715  -14.0015   26.4850 H   0  0  0  0  0  0  0  0  0  0  0  0
    0.4549  -14.5719   24.1915 H   0  0  0  0  0  0  0  0  0  0  0  0
    0.4642   -9.3791   21.7796 H   0  0  0  0  0  0  0  0  0  0  0  0
   -1.8618   -9.9993   20.5754 H   0  0  0  0  0  0  0  0  0  0  0  0
   -1.9688  -12.5199   20.7918 H   0  0  0  0  0  0  0  0  0  0  0  0
   -1.2351  -16.8770   24.4131 H   0  0  0  0  0  0  0  0  0  0  0  0
   -0.5012  -16.0545   25.5682 H   0  0  0  0  0  0  0  0  0  0  0  0
  1  2  2  0
  2  3  1  0
  3  4  1  0
  4  5  2  0
  5  6  1  0
  6  7  1  0
  7  8  2  0
  8  9  1  0
  9 10  2  0
 10 11  1  0
  2 12  1  0
 12 13  1  0
 13 14  1  0
 14 15  1  0
 15 16  1  0
 16 17  2  0
 17 18  1  0
 18 19  2  0
 19 20  1  0
 15 21  1  0
 11  3  2  0
 21 12  1  0
 10  6  1  0
 20 16  1  0
  4 22  1  0
  5 23  1  0
  7 24  1  0
  8 25  1  0
 13 26  1  0
 13 27  1  0
 14 28  1  0
 14 29  1  0
 15 30  1  0
 18 31  1  0
 19 32  1  0
 20 33  1  0
 21 34  1  0
 21 35  1  0
M  END
>  <Energy>  (369) 
1500.8165785072608

>  <compound_id>  (369) 
8699

>  <target_id>  (369) 
1

>  <reference_id>  (369) 
114

>  <inspiration_ids>  (369) 
[114, 107]

>  <energy_score>  (369) 
1370.040113134252

>  <distance_score>  (369) 
12.075979915251855

>  <path>  (369) 
/opt/xchem-fragalysis-2/maxwin/BulkDock/SCRATCH/511022/C8699-P114/C8699-P114.minimised.mol

>  <scratch_subdir>  (369) 
/opt/xchem-fragalysis-2/maxwin/BulkDock/SCRATCH/511022/C8699-P114

>  <fragmenstein_runtime>  (369) 
21.87921714782715

>  <fragmenstein_outcome>  (369) 
too moved

>  <fragmenstein_mode>  (369) 
expansion

>  <fragmenstein_error>  (369) 


$$$$
C8699-P107
     RDKit          3D

 35 38  0  0  0  0  0  0  0  0999 V2000
   -0.2503  -13.7858   21.9645 O   0  0  0  0  0  0  0  0  0  0  0  0
   -0.1611  -13.0805   22.8923 C   0  0  0  0  0  0  0  0  0  0  0  0
   -0.5982  -14.1794   24.5625 C   0  0  0  0  0  0  0  0  0  0  0  0
   -0.3760  -13.9299   26.1403 C   0  0  0  0  0  0  0  0  0  0  0  0
   -1.0262  -14.6876   27.0437 C   0  0  0  0  0  0  0  0  0  0  0  0
   -1.8427  -15.7095   26.6200 N   0  0  0  0  0  0  0  0  0  0  0  0
   -2.6649  -16.5528   27.3307 C   0  0  0  0  0  0  0  0  0  0  0  0
   -3.2857  -17.3271   26.3823 C   0  0  0  0  0  0  0  0  0  0  0  0
   -2.8478  -16.9832   25.1239 N   0  0  0  0  0  0  0  0  0  0  0  0
   -1.9411  -16.0296   25.2806 C   0  0  0  0  0  0  0  0  0  0  0  0
   -1.2567  -15.3300   24.2913 N   0  0  0  0  0  0  0  0  0  0  0  0
    0.5330  -11.2082   22.5190 N   0  0  0  0  0  0  0  0  0  0  0  0
   -0.2505   -9.8433   22.1402 C   0  0  0  0  0  0  0  0  0  0  0  0
    1.1623   -8.9151   20.9672 C   0  0  0  0  0  0  0  0  0  0  0  0
    2.4238   -9.3307   19.2796 C   0  0  0  0  0  0  0  0  0  0  0  0
    4.5414   -9.0743   18.3453 C   0  0  0  0  0  0  0  0  0  0  0  0
    6.0713  -10.1727   18.0139 N   0  0  0  0  0  0  0  0  0  0  0  0
    7.6159   -9.9355   16.4251 C   0  0  0  0  0  0  0  0  0  0  0  0
    6.8864   -8.0491   15.7152 C   0  0  0  0  0  0  0  0  0  0  0  0
    5.6119   -7.6683   17.3183 N   0  0  0  0  0  0  0  0  0  0  0  0
    1.0048  -10.2227   20.7868 C   0  0  0  0  0  0  0  0  0  0  0  0
    0.3250  -13.1698   26.4659 H   0  0  0  0  0  0  0  0  0  0  0  0
   -0.9211  -14.5436   28.1110 H   0  0  0  0  0  0  0  0  0  0  0  0
   -2.7409  -16.5169   28.4076 H   0  0  0  0  0  0  0  0  0  0  0  0
   -4.0184  -18.1101   26.5287 H   0  0  0  0  0  0  0  0  0  0  0  0
   -0.2817   -9.0033   22.8284 H   0  0  0  0  0  0  0  0  0  0  0  0
   -1.2431  -10.0231   21.6886 H   0  0  0  0  0  0  0  0  0  0  0  0
    0.6158   -7.9929   20.6235 H   0  0  0  0  0  0  0  0  0  0  0  0
    1.7032   -8.5463   21.8887 H   0  0  0  0  0  0  0  0  0  0  0  0
    1.8193   -8.9055   18.4573 H   0  0  0  0  0  0  0  0  0  0  0  0
    8.6233  -10.1442   16.8499 H   0  0  0  0  0  0  0  0  0  0  0  0
    7.3885   -7.0754   15.6252 H   0  0  0  0  0  0  0  0  0  0  0  0
    5.1460   -6.7758   17.2492 H   0  0  0  0  0  0  0  0  0  0  0  0
   -0.2560   -9.5369   20.4158 H   0  0  0  0  0  0  0  0  0  0  0  0
    0.2672  -11.0046   20.6349 H   0  0  0  0  0  0  0  0  0  0  0  0
  1  2  2  0
  2  3  1  0
  3  4  1  0
  4  5  2  0
  5  6  1  0
  6  7  1  0
  7  8  2  0
  8  9  1  0
  9 10  2  0
 10 11  1  0
  2 12  1  0
 12 13  1  0
 13 14  1  0
 14 15  1  0
 15 16  1  0
 16 17  2  0
 17 18  1  0
 18 19  2  0
 19 20  1  0
 15 21  1  0
 11  3  2  0
 21 12  1  0
 10  6  1  0
 20 16  1  0
  4 22  1  0
  5 23  1  0
  7 24  1  0
  8 25  1  0
 13 26  1  0
 13 27  1  0
 14 28  1  0
 14 29  1  0
 15 30  1  0
 18 31  1  0
 19 32  1  0
 20 33  1  0
 21 34  1  0
 21 35  1  0
M  END
>  <Energy>  (370) 
2522.0591676510016

>  <compound_id>  (370) 
8699

>  <target_id>  (370) 
1

>  <reference_id>  (370) 
107

>  <inspiration_ids>  (370) 
[114, 107]

>  <energy_score>  (370) 
2391.282702277979

>  <distance_score>  (370) 
12.708691752287015

>  <path>  (370) 
/opt/xchem-fragalysis-2/maxwin/BulkDock/SCRATCH/511022/C8699-P107/C8699-P107.minimised.mol

>  <scratch_subdir>  (370) 
/opt/xchem-fragalysis-2/maxwin/BulkDock/SCRATCH/511022/C8699-P107

>  <fragmenstein_runtime>  (370) 
21.13181209564209

>  <fragmenstein_outcome>  (370) 
too moved

>  <fragmenstein_mode>  (370) 
expansion

>  <fragmenstein_error>  (370) 


$$$$
C8692-P114
     RDKit          3D

 37 39  0  0  0  0  0  0  0  0999 V2000
    8.5214   -9.8147   27.1547 C   0  0  0  0  0  0  0  0  0  0  0  0
    7.7769  -10.9806   26.7536 N   0  0  0  0  0  0  0  0  0  0  0  0
    7.6491  -11.4621   25.4899 C   0  0  0  0  0  0  0  0  0  0  0  0
    6.9407  -12.5706   25.4955 N   0  0  0  0  0  0  0  0  0  0  0  0
    6.6035  -12.8546   26.8208 C   0  0  0  0  0  0  0  0  0  0  0  0
    5.8244  -14.1634   27.1381 C   0  0  0  0  0  0  0  0  0  0  0  0
    5.2057  -14.4299   28.5841 C   0  0  0  0  0  0  0  0  0  0  0  0
    4.0054  -15.4213   28.7518 N   0  0  0  0  0  0  0  0  0  0  0  0
    3.2281  -15.7938   29.9354 C   0  0  0  0  0  0  0  0  0  0  0  0
    3.3717  -15.4900   31.0889 O   0  0  0  0  0  0  0  0  0  0  0  0
    1.8560  -16.6735   29.7543 C   0  0  0  0  0  0  0  0  0  0  0  0
    0.9131  -16.5588   30.9636 C   0  0  0  0  0  0  0  0  0  0  0  0
   -0.2296  -17.2600   30.9626 C   0  0  0  0  0  0  0  0  0  0  0  0
   -0.5266  -18.0407   29.8701 N   0  0  0  0  0  0  0  0  0  0  0  0
   -1.6310  -18.8200   29.6345 C   0  0  0  0  0  0  0  0  0  0  0  0
   -1.4322  -19.3357   28.3808 C   0  0  0  0  0  0  0  0  0  0  0  0
   -0.2380  -18.8900   27.8539 N   0  0  0  0  0  0  0  0  0  0  0  0
    0.3336  -18.1192   28.7684 C   0  0  0  0  0  0  0  0  0  0  0  0
    1.5550  -17.4259   28.7200 N   0  0  0  0  0  0  0  0  0  0  0  0
    6.3812  -14.7772   29.5352 C   0  0  0  0  0  0  0  0  0  0  0  0
    7.5627  -14.6128   29.2592 O   0  0  0  0  0  0  0  0  0  0  0  0
    6.0351  -15.1961   30.7727 O   0  0  0  0  0  0  0  0  0  0  0  0
    7.1137  -11.8367   27.6035 C   0  0  0  0  0  0  0  0  0  0  0  0
    8.9652   -9.3424   26.2746 H   0  0  0  0  0  0  0  0  0  0  0  0
    7.8345   -9.1191   27.6434 H   0  0  0  0  0  0  0  0  0  0  0  0
    9.3077  -10.1267   27.8467 H   0  0  0  0  0  0  0  0  0  0  0  0
    8.0848  -10.9919   24.6179 H   0  0  0  0  0  0  0  0  0  0  0  0
    5.0158  -14.2630   26.4075 H   0  0  0  0  0  0  0  0  0  0  0  0
    6.5088  -14.9937   26.9150 H   0  0  0  0  0  0  0  0  0  0  0  0
    4.8021  -13.4803   28.9576 H   0  0  0  0  0  0  0  0  0  0  0  0
    3.6478  -15.9298   27.9468 H   0  0  0  0  0  0  0  0  0  0  0  0
    1.1967  -15.9236   31.7936 H   0  0  0  0  0  0  0  0  0  0  0  0
   -0.9410  -17.2386   31.7786 H   0  0  0  0  0  0  0  0  0  0  0  0
   -2.4332  -18.9290   30.3506 H   0  0  0  0  0  0  0  0  0  0  0  0
   -2.0761  -20.0022   27.8216 H   0  0  0  0  0  0  0  0  0  0  0  0
    5.0756  -15.1970   30.9807 H   0  0  0  0  0  0  0  0  0  0  0  0
    7.1100  -11.6807   28.6737 H   0  0  0  0  0  0  0  0  0  0  0  0
  1  2  1  0
  2  3  1  0
  3  4  2  0
  4  5  1  0
  5  6  1  0
  6  7  1  0
  7  8  1  0
  8  9  1  0
  9 10  2  0
  9 11  1  0
 11 12  1  0
 12 13  2  0
 13 14  1  0
 14 15  1  0
 15 16  2  0
 16 17  1  0
 17 18  2  0
 18 19  1  0
  7 20  1  0
 20 21  2  0
 20 22  1  0
  5 23  2  0
 23  2  1  0
 19 11  2  0
 18 14  1  0
  1 24  1  0
  1 25  1  0
  1 26  1  0
  3 27  1  0
  6 28  1  0
  6 29  1  0
  7 30  1  0
  8 31  1  0
 12 32  1  0
 13 33  1  0
 15 34  1  0
 16 35  1  0
 22 36  1  0
 23 37  1  0
M  END
>  <Energy>  (371) 
90.484938801996989

>  <compound_id>  (371) 
8692

>  <target_id>  (371) 
1

>  <reference_id>  (371) 
114

>  <inspiration_ids>  (371) 
[114, 107]

>  <energy_score>  (371) 
-1.3362127306606908

>  <distance_score>  (371) 
14.724857694029682

>  <path>  (371) 
/opt/xchem-fragalysis-2/maxwin/BulkDock/SCRATCH/511022/C8692-P114/C8692-P114.minimised.mol

>  <scratch_subdir>  (371) 
/opt/xchem-fragalysis-2/maxwin/BulkDock/SCRATCH/511022/C8692-P114

>  <fragmenstein_runtime>  (371) 
37.40939426422119

>  <fragmenstein_outcome>  (371) 
too moved

>  <fragmenstein_mode>  (371) 
expansion

>  <fragmenstein_error>  (371) 


$$$$
C8692-P107
     RDKit          3D

 37 39  0  0  0  0  0  0  0  0999 V2000
    0.9184   -5.4928   21.4236 C   0  0  0  0  0  0  0  0  0  0  0  0
   -0.0688   -6.4434   21.8590 N   0  0  0  0  0  0  0  0  0  0  0  0
   -0.3358   -7.6525   21.2958 C   0  0  0  0  0  0  0  0  0  0  0  0
   -1.3312   -8.2562   21.9162 N   0  0  0  0  0  0  0  0  0  0  0  0
   -1.7372   -7.4123   22.9289 C   0  0  0  0  0  0  0  0  0  0  0  0
   -2.8674   -7.7969   23.9073 C   0  0  0  0  0  0  0  0  0  0  0  0
   -4.0127   -8.7448   23.3536 C   0  0  0  0  0  0  0  0  0  0  0  0
   -4.8596   -9.6979   24.2295 N   0  0  0  0  0  0  0  0  0  0  0  0
   -4.4674  -10.6801   25.2241 C   0  0  0  0  0  0  0  0  0  0  0  0
   -3.3914  -10.9435   25.6768 O   0  0  0  0  0  0  0  0  0  0  0  0
   -5.6305  -11.6814   25.7544 C   0  0  0  0  0  0  0  0  0  0  0  0
   -6.4440  -12.4352   24.7220 C   0  0  0  0  0  0  0  0  0  0  0  0
   -7.1786  -13.4790   25.1528 C   0  0  0  0  0  0  0  0  0  0  0  0
   -7.2127  -13.7806   26.5046 N   0  0  0  0  0  0  0  0  0  0  0  0
   -7.8663  -14.7890   27.1743 C   0  0  0  0  0  0  0  0  0  0  0  0
   -7.5696  -14.5865   28.4996 C   0  0  0  0  0  0  0  0  0  0  0  0
   -6.7606  -13.4850   28.6500 N   0  0  0  0  0  0  0  0  0  0  0  0
   -6.5271  -13.0061   27.4382 C   0  0  0  0  0  0  0  0  0  0  0  0
   -5.7204  -11.9524   27.0406 N   0  0  0  0  0  0  0  0  0  0  0  0
   -5.0744   -7.9000   22.6365 C   0  0  0  0  0  0  0  0  0  0  0  0
   -6.2873   -8.0344   22.7577 O   0  0  0  0  0  0  0  0  0  0  0  0
   -4.5937   -6.9738   21.7899 O   0  0  0  0  0  0  0  0  0  0  0  0
   -0.9341   -6.2796   22.9096 C   0  0  0  0  0  0  0  0  0  0  0  0
    1.2731   -5.7639   20.4261 H   0  0  0  0  0  0  0  0  0  0  0  0
    0.4605   -4.5007   21.3912 H   0  0  0  0  0  0  0  0  0  0  0  0
    1.7458   -5.5053   22.1371 H   0  0  0  0  0  0  0  0  0  0  0  0
    0.2022   -8.0560   20.4472 H   0  0  0  0  0  0  0  0  0  0  0  0
   -2.4311   -8.2509   24.7996 H   0  0  0  0  0  0  0  0  0  0  0  0
   -3.3286   -6.8633   24.2576 H   0  0  0  0  0  0  0  0  0  0  0  0
   -3.5906   -9.4067   22.5922 H   0  0  0  0  0  0  0  0  0  0  0  0
   -5.8736   -9.6940   24.1479 H   0  0  0  0  0  0  0  0  0  0  0  0
   -6.3848  -12.1402   23.6846 H   0  0  0  0  0  0  0  0  0  0  0  0
   -7.7656  -14.0984   24.4877 H   0  0  0  0  0  0  0  0  0  0  0  0
   -8.4626  -15.5305   26.6652 H   0  0  0  0  0  0  0  0  0  0  0  0
   -7.8873  -15.1647   29.3573 H   0  0  0  0  0  0  0  0  0  0  0  0
   -5.3866   -6.5733   21.3781 H   0  0  0  0  0  0  0  0  0  0  0  0
   -0.9184   -5.4010   23.5390 H   0  0  0  0  0  0  0  0  0  0  0  0
  1  2  1  0
  2  3  1  0
  3  4  2  0
  4  5  1  0
  5  6  1  0
  6  7  1  0
  7  8  1  0
  8  9  1  0
  9 10  2  0
  9 11  1  0
 11 12  1  0
 12 13  2  0
 13 14  1  0
 14 15  1  0
 15 16  2  0
 16 17  1  0
 17 18  2  0
 18 19  1  0
  7 20  1  0
 20 21  2  0
 20 22  1  0
  5 23  2  0
 23  2  1  0
 19 11  2  0
 18 14  1  0
  1 24  1  0
  1 25  1  0
  1 26  1  0
  3 27  1  0
  6 28  1  0
  6 29  1  0
  7 30  1  0
  8 31  1  0
 12 32  1  0
 13 33  1  0
 15 34  1  0
 16 35  1  0
 22 36  1  0
 23 37  1  0
M  END
>  <Energy>  (372) 
88.821266220791145

>  <compound_id>  (372) 
8692

>  <target_id>  (372) 
1

>  <reference_id>  (372) 
107

>  <inspiration_ids>  (372) 
[114, 107]

>  <energy_score>  (372) 
-2.9998853118671605

>  <distance_score>  (372) 
14.063943480859407

>  <path>  (372) 
/opt/xchem-fragalysis-2/maxwin/BulkDock/SCRATCH/511022/C8692-P107/C8692-P107.minimised.mol

>  <scratch_subdir>  (372) 
/opt/xchem-fragalysis-2/maxwin/BulkDock/SCRATCH/511022/C8692-P107

>  <fragmenstein_runtime>  (372) 
34.70923709869385

>  <fragmenstein_outcome>  (372) 
too moved

>  <fragmenstein_mode>  (372) 
expansion

>  <fragmenstein_error>  (372) 


$$$$
C8679-P114
     RDKit          3D

 31 33  0  0  0  0  0  0  0  0999 V2000
   -1.0358  -22.0795   21.7936 O   0  0  0  0  0  0  0  0  0  0  0  0
   -1.7935  -20.7449   22.3003 C   0  0  0  0  0  0  0  0  0  0  0  0
   -1.4532  -19.9903   21.5837 N   0  0  0  0  0  0  0  0  0  0  0  0
   -0.5590  -19.7765   20.4842 C   0  0  0  0  0  0  0  0  0  0  0  0
   -0.7783  -18.8107   19.6090 N   0  0  0  0  0  0  0  0  0  0  0  0
    0.0429  -19.0812   18.5419 C   0  0  0  0  0  0  0  0  0  0  0  0
    0.9322  -20.0741   18.8522 C   0  0  0  0  0  0  0  0  0  0  0  0
    0.6118  -20.4450   20.1384 N   0  0  0  0  0  0  0  0  0  0  0  0
    1.3692  -21.3870   20.9412 C   0  0  0  0  0  0  0  0  0  0  0  0
    2.8751  -21.3294   20.7792 C   0  0  0  0  0  0  0  0  0  0  0  0
    3.4387  -22.3574   21.4700 F   0  0  0  0  0  0  0  0  0  0  0  0
    3.3715  -20.1945   21.3306 F   0  0  0  0  0  0  0  0  0  0  0  0
   -2.6756  -20.9765   23.4929 C   0  0  0  0  0  0  0  0  0  0  0  0
   -3.1853  -22.3866   23.6775 C   0  0  0  0  0  0  0  0  0  0  0  0
   -3.7376  -22.6624   24.8681 C   0  0  0  0  0  0  0  0  0  0  0  0
   -3.8506  -21.6489   25.8019 N   0  0  0  0  0  0  0  0  0  0  0  0
   -4.2390  -21.7003   27.1123 C   0  0  0  0  0  0  0  0  0  0  0  0
   -4.1463  -20.4058   27.5654 C   0  0  0  0  0  0  0  0  0  0  0  0
   -3.7721  -19.5628   26.5534 N   0  0  0  0  0  0  0  0  0  0  0  0
   -3.5068  -20.3299   25.5141 C   0  0  0  0  0  0  0  0  0  0  0  0
   -2.9012  -19.9980   24.3280 N   0  0  0  0  0  0  0  0  0  0  0  0
   -1.4498  -19.0629   21.1405 H   0  0  0  0  0  0  0  0  0  0  0  0
   -0.0506  -18.5792   17.5939 H   0  0  0  0  0  0  0  0  0  0  0  0
    1.7202  -20.5323   18.2725 H   0  0  0  0  0  0  0  0  0  0  0  0
    1.0240  -22.3899   20.6704 H   0  0  0  0  0  0  0  0  0  0  0  0
    1.1445  -21.1873   21.9936 H   0  0  0  0  0  0  0  0  0  0  0  0
    3.2167  -21.3959   19.7439 H   0  0  0  0  0  0  0  0  0  0  0  0
   -3.0359  -23.1191   22.8948 H   0  0  0  0  0  0  0  0  0  0  0  0
   -4.0853  -23.6480   25.1438 H   0  0  0  0  0  0  0  0  0  0  0  0
   -4.4984  -22.6324   27.5837 H   0  0  0  0  0  0  0  0  0  0  0  0
   -4.3173  -20.0215   28.5638 H   0  0  0  0  0  0  0  0  0  0  0  0
  1  2  2  0
  2  3  1  0
  3  4  1  0
  4  5  2  0
  5  6  1  0
  6  7  2  0
  7  8  1  0
  8  9  1  0
  9 10  1  0
 10 11  1  0
 10 12  1  0
  2 13  1  0
 13 14  1  0
 14 15  2  0
 15 16  1  0
 16 17  1  0
 17 18  2  0
 18 19  1  0
 19 20  2  0
 20 21  1  0
  8  4  1  0
 21 13  2  0
 20 16  1  0
  3 22  1  0
  6 23  1  0
  7 24  1  0
  9 25  1  0
  9 26  1  0
 10 27  1  0
 14 28  1  0
 15 29  1  0
 17 30  1  0
 18 31  1  0
M  END
>  <Energy>  (373) 
251.73495615780777

>  <compound_id>  (373) 
8679

>  <target_id>  (373) 
1

>  <reference_id>  (373) 
114

>  <inspiration_ids>  (373) 
[114, 107]

>  <energy_score>  (373) 
175.10293708841482

>  <distance_score>  (373) 
15.489234673455949

>  <path>  (373) 
/opt/xchem-fragalysis-2/maxwin/BulkDock/SCRATCH/511022/C8679-P114/C8679-P114.minimised.mol

>  <scratch_subdir>  (373) 
/opt/xchem-fragalysis-2/maxwin/BulkDock/SCRATCH/511022/C8679-P114

>  <fragmenstein_runtime>  (373) 
10.917365074157715

>  <fragmenstein_outcome>  (373) 
too moved

>  <fragmenstein_mode>  (373) 
expansion

>  <fragmenstein_error>  (373) 


$$$$
C8679-P107
     RDKit          3D

 31 33  0  0  0  0  0  0  0  0999 V2000
   -6.0707  -13.3436   21.4565 O   0  0  0  0  0  0  0  0  0  0  0  0
   -5.9638  -12.8368   22.5386 C   0  0  0  0  0  0  0  0  0  0  0  0
   -5.2857  -11.6204   22.9524 N   0  0  0  0  0  0  0  0  0  0  0  0
   -4.4755  -10.7228   22.2305 C   0  0  0  0  0  0  0  0  0  0  0  0
   -3.8264   -9.7350   22.8435 N   0  0  0  0  0  0  0  0  0  0  0  0
   -3.0808   -9.0489   21.9094 C   0  0  0  0  0  0  0  0  0  0  0  0
   -3.1727   -9.6758   20.7005 C   0  0  0  0  0  0  0  0  0  0  0  0
   -4.0488  -10.7307   20.8905 N   0  0  0  0  0  0  0  0  0  0  0  0
   -4.3982  -11.7042   19.8730 C   0  0  0  0  0  0  0  0  0  0  0  0
   -3.6418  -11.6220   18.5585 C   0  0  0  0  0  0  0  0  0  0  0  0
   -4.0170  -12.6581   17.7619 F   0  0  0  0  0  0  0  0  0  0  0  0
   -3.9780  -10.4937   17.8801 F   0  0  0  0  0  0  0  0  0  0  0  0
   -6.6060  -13.6996   23.7248 C   0  0  0  0  0  0  0  0  0  0  0  0
   -7.3135  -14.9813   23.2903 C   0  0  0  0  0  0  0  0  0  0  0  0
   -7.8585  -15.7463   24.2509 C   0  0  0  0  0  0  0  0  0  0  0  0
   -7.7504  -15.3463   25.5704 N   0  0  0  0  0  0  0  0  0  0  0  0
   -8.2308  -15.9327   26.7154 C   0  0  0  0  0  0  0  0  0  0  0  0
   -7.8116  -15.1202   27.7378 C   0  0  0  0  0  0  0  0  0  0  0  0
   -7.1159  -14.0423   27.2432 N   0  0  0  0  0  0  0  0  0  0  0  0
   -7.0813  -14.1720   25.9281 C   0  0  0  0  0  0  0  0  0  0  0  0
   -6.5042  -13.3371   24.9797 N   0  0  0  0  0  0  0  0  0  0  0  0
   -5.3322  -11.5421   23.9668 H   0  0  0  0  0  0  0  0  0  0  0  0
   -2.5017   -8.1748   22.1768 H   0  0  0  0  0  0  0  0  0  0  0  0
   -2.7043   -9.4482   19.7519 H   0  0  0  0  0  0  0  0  0  0  0  0
   -5.4714  -11.5955   19.6873 H   0  0  0  0  0  0  0  0  0  0  0  0
   -4.1885  -12.6907   20.2919 H   0  0  0  0  0  0  0  0  0  0  0  0
   -2.5553  -11.6551   18.6810 H   0  0  0  0  0  0  0  0  0  0  0  0
   -7.3581  -15.2285   22.2369 H   0  0  0  0  0  0  0  0  0  0  0  0
   -8.3873  -16.6660   24.0418 H   0  0  0  0  0  0  0  0  0  0  0  0
   -8.8112  -16.8395   26.7112 H   0  0  0  0  0  0  0  0  0  0  0  0
   -7.9754  -15.2392   28.8015 H   0  0  0  0  0  0  0  0  0  0  0  0
  1  2  2  0
  2  3  1  0
  3  4  1  0
  4  5  2  0
  5  6  1  0
  6  7  2  0
  7  8  1  0
  8  9  1  0
  9 10  1  0
 10 11  1  0
 10 12  1  0
  2 13  1  0
 13 14  1  0
 14 15  2  0
 15 16  1  0
 16 17  1  0
 17 18  2  0
 18 19  1  0
 19 20  2  0
 20 21  1  0
  8  4  1  0
 21 13  2  0
 20 16  1  0
  3 22  1  0
  6 23  1  0
  7 24  1  0
  9 25  1  0
  9 26  1  0
 10 27  1  0
 14 28  1  0
 15 29  1  0
 17 30  1  0
 18 31  1  0
M  END
>  <Energy>  (374) 
41.643282311539558

>  <compound_id>  (374) 
8679

>  <target_id>  (374) 
1

>  <reference_id>  (374) 
107

>  <inspiration_ids>  (374) 
[114, 107]

>  <energy_score>  (374) 
-34.98873675784603

>  <distance_score>  (374) 
14.537065708302878

>  <path>  (374) 
/opt/xchem-fragalysis-2/maxwin/BulkDock/SCRATCH/511022/C8679-P107/C8679-P107.minimised.mol

>  <scratch_subdir>  (374) 
/opt/xchem-fragalysis-2/maxwin/BulkDock/SCRATCH/511022/C8679-P107

>  <fragmenstein_runtime>  (374) 
23.00423836708069

>  <fragmenstein_outcome>  (374) 
too moved

>  <fragmenstein_mode>  (374) 
expansion

>  <fragmenstein_error>  (374) 


$$$$
C8700-P114
     RDKit          3D

 37 39  0  0  0  0  0  0  0  0999 V2000
   -3.1245  -10.3392   20.0232 C   0  0  0  0  0  0  0  0  0  0  0  0
   -2.9706  -11.7037   19.5648 N   0  0  0  0  0  0  0  0  0  0  0  0
   -2.2013  -10.8800   18.3076 C   0  0  0  0  0  0  0  0  0  0  0  0
   -1.4001   -9.2377   18.4615 C   0  0  0  0  0  0  0  0  0  0  0  0
   -1.2312   -8.7522   19.6991 N   0  0  0  0  0  0  0  0  0  0  0  0
    0.1046   -8.4086   19.8943 C   0  0  0  0  0  0  0  0  0  0  0  0
    0.7685   -8.5172   18.6929 C   0  0  0  0  0  0  0  0  0  0  0  0
   -0.2609   -8.5810   17.7465 N   0  0  0  0  0  0  0  0  0  0  0  0
    0.0955   -8.2509   16.1815 C   0  0  0  0  0  0  0  0  0  0  0  0
   -0.3361   -7.1062   14.6557 C   0  0  0  0  0  0  0  0  0  0  0  0
    0.5185   -6.0110   14.5127 F   0  0  0  0  0  0  0  0  0  0  0  0
   -0.6212   -7.7321   13.4809 F   0  0  0  0  0  0  0  0  0  0  0  0
   -2.0569  -12.9747   20.1118 C   0  0  0  0  0  0  0  0  0  0  0  0
   -1.3844  -12.6489   20.9402 O   0  0  0  0  0  0  0  0  0  0  0  0
   -1.9223  -15.0411   19.8595 C   0  0  0  0  0  0  0  0  0  0  0  0
   -0.6909  -16.3838   20.2124 C   0  0  0  0  0  0  0  0  0  0  0  0
   -0.9166  -17.7144   20.3760 C   0  0  0  0  0  0  0  0  0  0  0  0
   -2.2001  -18.1626   20.4264 N   0  0  0  0  0  0  0  0  0  0  0  0
   -2.7258  -19.3795   20.7886 C   0  0  0  0  0  0  0  0  0  0  0  0
   -4.0783  -19.1716   20.8667 C   0  0  0  0  0  0  0  0  0  0  0  0
   -4.3690  -17.8777   20.5260 N   0  0  0  0  0  0  0  0  0  0  0  0
   -3.2140  -17.2599   20.2537 C   0  0  0  0  0  0  0  0  0  0  0  0
   -2.9776  -15.8650   20.0773 N   0  0  0  0  0  0  0  0  0  0  0  0
   -3.4259   -9.4853   19.4177 H   0  0  0  0  0  0  0  0  0  0  0  0
   -2.3184  -10.1583   20.7434 H   0  0  0  0  0  0  0  0  0  0  0  0
   -3.9202  -10.4247   20.7697 H   0  0  0  0  0  0  0  0  0  0  0  0
   -3.0046  -10.6764   17.5960 H   0  0  0  0  0  0  0  0  0  0  0  0
   -1.4736  -11.6037   17.9855 H   0  0  0  0  0  0  0  0  0  0  0  0
    0.4721   -8.2784   20.9035 H   0  0  0  0  0  0  0  0  0  0  0  0
    1.8112   -8.5409   18.4015 H   0  0  0  0  0  0  0  0  0  0  0  0
    1.1363   -7.9824   16.3733 H   0  0  0  0  0  0  0  0  0  0  0  0
   -0.5609   -7.5924   16.6204 H   0  0  0  0  0  0  0  0  0  0  0  0
   -1.0953   -6.3710   14.6057 H   0  0  0  0  0  0  0  0  0  0  0  0
    0.3802  -16.1888   20.2994 H   0  0  0  0  0  0  0  0  0  0  0  0
   -0.1253  -18.4245   20.5776 H   0  0  0  0  0  0  0  0  0  0  0  0
   -2.1044  -20.2393   20.9883 H   0  0  0  0  0  0  0  0  0  0  0  0
   -4.8540  -19.8748   21.1397 H   0  0  0  0  0  0  0  0  0  0  0  0
  1  2  1  0
  2  3  1  0
  3  4  1  0
  4  5  2  0
  5  6  1  0
  6  7  2  0
  7  8  1  0
  8  9  1  0
  9 10  1  0
 10 11  1  0
 10 12  1  0
  2 13  1  0
 13 14  2  0
 13 15  1  0
 15 16  1  0
 16 17  2  0
 17 18  1  0
 18 19  1  0
 19 20  2  0
 20 21  1  0
 21 22  2  0
 22 23  1  0
  8  4  1  0
 23 15  2  0
 22 18  1  0
  1 24  1  0
  1 25  1  0
  1 26  1  0
  3 27  1  0
  3 28  1  0
  6 29  1  0
  7 30  1  0
  9 31  1  0
  9 32  1  0
 10 33  1  0
 16 34  1  0
 17 35  1  0
 19 36  1  0
 20 37  1  0
M  END
>  <Energy>  (375) 
633.8978443784797

>  <compound_id>  (375) 
8700

>  <target_id>  (375) 
1

>  <reference_id>  (375) 
114

>  <inspiration_ids>  (375) 
[114, 107]

>  <energy_score>  (375) 
530.1496348145206

>  <distance_score>  (375) 
15.203049996884817

>  <path>  (375) 
/opt/xchem-fragalysis-2/maxwin/BulkDock/SCRATCH/511022/C8700-P114/C8700-P114.minimised.mol

>  <scratch_subdir>  (375) 
/opt/xchem-fragalysis-2/maxwin/BulkDock/SCRATCH/511022/C8700-P114

>  <fragmenstein_runtime>  (375) 
32.74381756782532

>  <fragmenstein_outcome>  (375) 
too moved

>  <fragmenstein_mode>  (375) 
expansion

>  <fragmenstein_error>  (375) 


$$$$
C8700-P107
     RDKit          3D

 37 39  0  0  0  0  0  0  0  0999 V2000
   -0.7739  -11.1886   28.7276 C   0  0  0  0  0  0  0  0  0  0  0  0
   -2.1349  -11.6920   28.6144 N   0  0  0  0  0  0  0  0  0  0  0  0
   -2.4773  -10.1050   28.7084 C   0  0  0  0  0  0  0  0  0  0  0  0
   -1.6797   -8.8809   28.0075 C   0  0  0  0  0  0  0  0  0  0  0  0
   -1.8818   -8.4185   26.7783 N   0  0  0  0  0  0  0  0  0  0  0  0
   -0.9840   -7.3953   26.5543 C   0  0  0  0  0  0  0  0  0  0  0  0
   -0.3024   -7.1199   27.7045 C   0  0  0  0  0  0  0  0  0  0  0  0
   -0.7466   -8.0401   28.6249 N   0  0  0  0  0  0  0  0  0  0  0  0
   -0.3626   -7.9899   30.0251 C   0  0  0  0  0  0  0  0  0  0  0  0
    1.0831   -8.3868   30.2565 C   0  0  0  0  0  0  0  0  0  0  0  0
    1.3256   -8.4347   31.5896 F   0  0  0  0  0  0  0  0  0  0  0  0
    1.9210   -7.4491   29.7457 F   0  0  0  0  0  0  0  0  0  0  0  0
   -2.9471  -12.4393   29.5583 C   0  0  0  0  0  0  0  0  0  0  0  0
   -2.7283  -12.7493   30.7039 O   0  0  0  0  0  0  0  0  0  0  0  0
   -4.2853  -13.0847   29.0780 C   0  0  0  0  0  0  0  0  0  0  0  0
   -5.5623  -12.5060   29.6195 C   0  0  0  0  0  0  0  0  0  0  0  0
   -6.6422  -13.3074   29.5840 C   0  0  0  0  0  0  0  0  0  0  0  0
   -6.5390  -14.5741   29.0330 N   0  0  0  0  0  0  0  0  0  0  0  0
   -7.4797  -15.5653   28.9247 C   0  0  0  0  0  0  0  0  0  0  0  0
   -6.8165  -16.6289   28.3671 C   0  0  0  0  0  0  0  0  0  0  0  0
   -5.5226  -16.2830   28.0590 N   0  0  0  0  0  0  0  0  0  0  0  0
   -5.3528  -15.0381   28.4740 C   0  0  0  0  0  0  0  0  0  0  0  0
   -4.2144  -14.2587   28.4873 N   0  0  0  0  0  0  0  0  0  0  0  0
   -0.5410  -10.7093   29.6854 H   0  0  0  0  0  0  0  0  0  0  0  0
   -0.1874  -12.1167   28.8234 H   0  0  0  0  0  0  0  0  0  0  0  0
   -0.3479  -10.7634   27.8194 H   0  0  0  0  0  0  0  0  0  0  0  0
   -3.4872  -10.0565   28.2742 H   0  0  0  0  0  0  0  0  0  0  0  0
   -2.6264   -9.8672   29.7727 H   0  0  0  0  0  0  0  0  0  0  0  0
   -0.9016   -6.9041   25.5919 H   0  0  0  0  0  0  0  0  0  0  0  0
    0.4247   -6.3546   27.9421 H   0  0  0  0  0  0  0  0  0  0  0  0
   -0.5278   -6.9597   30.3619 H   0  0  0  0  0  0  0  0  0  0  0  0
   -1.0346   -8.6241   30.6072 H   0  0  0  0  0  0  0  0  0  0  0  0
    1.3433   -9.3531   29.8175 H   0  0  0  0  0  0  0  0  0  0  0  0
   -5.5532  -11.5254   30.0726 H   0  0  0  0  0  0  0  0  0  0  0  0
   -7.6040  -13.0175   29.9877 H   0  0  0  0  0  0  0  0  0  0  0  0
   -8.4946  -15.4253   29.2589 H   0  0  0  0  0  0  0  0  0  0  0  0
   -7.1963  -17.6185   28.1520 H   0  0  0  0  0  0  0  0  0  0  0  0
  1  2  1  0
  2  3  1  0
  3  4  1  0
  4  5  2  0
  5  6  1  0
  6  7  2  0
  7  8  1  0
  8  9  1  0
  9 10  1  0
 10 11  1  0
 10 12  1  0
  2 13  1  0
 13 14  2  0
 13 15  1  0
 15 16  1  0
 16 17  2  0
 17 18  1  0
 18 19  1  0
 19 20  2  0
 20 21  1  0
 21 22  2  0
 22 23  1  0
  8  4  1  0
 23 15  2  0
 22 18  1  0
  1 24  1  0
  1 25  1  0
  1 26  1  0
  3 27  1  0
  3 28  1  0
  6 29  1  0
  7 30  1  0
  9 31  1  0
  9 32  1  0
 10 33  1  0
 16 34  1  0
 17 35  1  0
 19 36  1  0
 20 37  1  0
M  END
>  <Energy>  (376) 
168.53244323189406

>  <compound_id>  (376) 
8700

>  <target_id>  (376) 
1

>  <reference_id>  (376) 
107

>  <inspiration_ids>  (376) 
[114, 107]

>  <energy_score>  (376) 
64.78423366794254

>  <distance_score>  (376) 
14.666509101224571

>  <path>  (376) 
/opt/xchem-fragalysis-2/maxwin/BulkDock/SCRATCH/511022/C8700-P107/C8700-P107.minimised.mol

>  <scratch_subdir>  (376) 
/opt/xchem-fragalysis-2/maxwin/BulkDock/SCRATCH/511022/C8700-P107

>  <fragmenstein_runtime>  (376) 
31.164843797683716

>  <fragmenstein_outcome>  (376) 
too moved

>  <fragmenstein_mode>  (376) 
expansion

>  <fragmenstein_error>  (376) 


$$$$
C8701-P114
     RDKit          3D

 39 41  0  0  0  0  0  0  0  0999 V2000
    4.2516   -7.2485   18.0413 C   0  0  0  0  0  0  0  0  0  0  0  0
    2.5186   -8.2189   18.1887 C   0  0  0  0  0  0  0  0  0  0  0  0
    1.9549   -8.1773   17.0104 N   0  0  0  0  0  0  0  0  0  0  0  0
    0.6175   -8.2724   17.0321 C   0  0  0  0  0  0  0  0  0  0  0  0
    0.0844   -8.4708   18.2454 C   0  0  0  0  0  0  0  0  0  0  0  0
    1.1449   -8.5438   19.1490 N   0  0  0  0  0  0  0  0  0  0  0  0
    0.4567   -9.0748   20.6545 C   0  0  0  0  0  0  0  0  0  0  0  0
   -1.0148  -10.3251   20.9936 C   0  0  0  0  0  0  0  0  0  0  0  0
   -2.2273   -9.3813   21.0996 C   0  0  0  0  0  0  0  0  0  0  0  0
   -1.8373  -11.9612   20.3518 C   0  0  0  0  0  0  0  0  0  0  0  0
   -2.1358  -13.7549   20.7859 O   0  0  0  0  0  0  0  0  0  0  0  0
   -1.8096  -14.7127   22.2140 C   0  0  0  0  0  0  0  0  0  0  0  0
   -0.6188  -14.8859   22.3454 O   0  0  0  0  0  0  0  0  0  0  0  0
   -3.1570  -15.3233   23.6038 C   0  0  0  0  0  0  0  0  0  0  0  0
   -2.6175  -15.3566   25.0821 C   0  0  0  0  0  0  0  0  0  0  0  0
   -3.4099  -15.8269   26.0550 C   0  0  0  0  0  0  0  0  0  0  0  0
   -4.7001  -16.1957   25.7495 N   0  0  0  0  0  0  0  0  0  0  0  0
   -5.7188  -16.5470   26.5976 C   0  0  0  0  0  0  0  0  0  0  0  0
   -6.8332  -16.5590   25.8022 C   0  0  0  0  0  0  0  0  0  0  0  0
   -6.4930  -16.4062   24.4779 N   0  0  0  0  0  0  0  0  0  0  0  0
   -5.1939  -16.1478   24.4466 C   0  0  0  0  0  0  0  0  0  0  0  0
   -4.3850  -15.8037   23.3707 N   0  0  0  0  0  0  0  0  0  0  0  0
    5.0374   -7.9621   18.3219 H   0  0  0  0  0  0  0  0  0  0  0  0
    4.5215   -6.4693   18.7349 H   0  0  0  0  0  0  0  0  0  0  0  0
    4.5182   -6.7556   17.0838 H   0  0  0  0  0  0  0  0  0  0  0  0
    0.0741   -8.2125   16.1192 H   0  0  0  0  0  0  0  0  0  0  0  0
   -0.9315   -8.6668   18.5555 H   0  0  0  0  0  0  0  0  0  0  0  0
    0.1847   -8.1152   21.0916 H   0  0  0  0  0  0  0  0  0  0  0  0
    1.3191   -9.4466   21.1592 H   0  0  0  0  0  0  0  0  0  0  0  0
   -0.6884  -10.5782   21.9901 H   0  0  0  0  0  0  0  0  0  0  0  0
   -1.9933   -8.5394   21.7513 H   0  0  0  0  0  0  0  0  0  0  0  0
   -2.5204   -9.0153   20.1135 H   0  0  0  0  0  0  0  0  0  0  0  0
   -3.1008   -9.8711   21.5346 H   0  0  0  0  0  0  0  0  0  0  0  0
   -1.6627  -12.0149   19.2714 H   0  0  0  0  0  0  0  0  0  0  0  0
   -2.9000  -11.6984   20.3908 H   0  0  0  0  0  0  0  0  0  0  0  0
   -1.6163  -14.9928   25.2621 H   0  0  0  0  0  0  0  0  0  0  0  0
   -3.1039  -15.8706   27.0928 H   0  0  0  0  0  0  0  0  0  0  0  0
   -5.5818  -16.6443   27.6652 H   0  0  0  0  0  0  0  0  0  0  0  0
   -7.8640  -16.6674   26.1106 H   0  0  0  0  0  0  0  0  0  0  0  0
  1  2  1  0
  2  3  2  0
  3  4  1  0
  4  5  2  0
  5  6  1  0
  6  7  1  0
  7  8  1  0
  8  9  1  0
  8 10  1  0
 10 11  1  0
 11 12  1  0
 12 13  2  0
 12 14  1  0
 14 15  1  0
 15 16  2  0
 16 17  1  0
 17 18  1  0
 18 19  2  0
 19 20  1  0
 20 21  2  0
 21 22  1  0
  6  2  1  0
 22 14  2  0
 21 17  1  0
  1 23  1  0
  1 24  1  0
  1 25  1  0
  4 26  1  0
  5 27  1  0
  7 28  1  0
  7 29  1  0
  8 30  1  0
  9 31  1  0
  9 32  1  0
  9 33  1  0
 10 34  1  0
 10 35  1  0
 15 36  1  0
 16 37  1  0
 18 38  1  0
 19 39  1  0
M  END
>  <Energy>  (377) 
584.69260253976302

>  <compound_id>  (377) 
8701

>  <target_id>  (377) 
1

>  <reference_id>  (377) 
114

>  <inspiration_ids>  (377) 
[114, 107]

>  <energy_score>  (377) 
466.4091225093523

>  <distance_score>  (377) 
12.711763058951561

>  <path>  (377) 
/opt/xchem-fragalysis-2/maxwin/BulkDock/SCRATCH/511022/C8701-P114/C8701-P114.minimised.mol

>  <scratch_subdir>  (377) 
/opt/xchem-fragalysis-2/maxwin/BulkDock/SCRATCH/511022/C8701-P114

>  <fragmenstein_runtime>  (377) 
24.322563648223877

>  <fragmenstein_outcome>  (377) 
too moved

>  <fragmenstein_mode>  (377) 
expansion

>  <fragmenstein_error>  (377) 


$$$$
C8701-P107
     RDKit          3D

 39 41  0  0  0  0  0  0  0  0999 V2000
    9.1956  -10.9619   19.0264 C   0  0  0  0  0  0  0  0  0  0  0  0
    9.1226  -12.1384   20.0613 C   0  0  0  0  0  0  0  0  0  0  0  0
   10.2645  -12.5051   20.6292 N   0  0  0  0  0  0  0  0  0  0  0  0
   10.0290  -13.6964   21.1756 C   0  0  0  0  0  0  0  0  0  0  0  0
    8.7465  -14.0674   20.8797 C   0  0  0  0  0  0  0  0  0  0  0  0
    7.8361  -12.8937   20.8292 N   0  0  0  0  0  0  0  0  0  0  0  0
    5.9652  -12.7415   20.5924 C   0  0  0  0  0  0  0  0  0  0  0  0
    4.1226  -12.8135   21.4897 C   0  0  0  0  0  0  0  0  0  0  0  0
    4.0651  -11.5284   22.2376 C   0  0  0  0  0  0  0  0  0  0  0  0
    3.2890  -13.8716   23.1115 C   0  0  0  0  0  0  0  0  0  0  0  0
    4.2449  -15.0922   24.0525 O   0  0  0  0  0  0  0  0  0  0  0  0
    4.8322  -15.3017   25.3279 C   0  0  0  0  0  0  0  0  0  0  0  0
    5.5624  -14.4993   25.8902 O   0  0  0  0  0  0  0  0  0  0  0  0
    4.4000  -16.7608   26.1595 C   0  0  0  0  0  0  0  0  0  0  0  0
    4.3540  -18.0699   25.3865 C   0  0  0  0  0  0  0  0  0  0  0  0
    3.5465  -19.0380   25.8748 C   0  0  0  0  0  0  0  0  0  0  0  0
    2.8413  -18.8292   27.0561 N   0  0  0  0  0  0  0  0  0  0  0  0
    1.8651  -19.5906   27.6623 C   0  0  0  0  0  0  0  0  0  0  0  0
    1.4429  -18.8467   28.7375 C   0  0  0  0  0  0  0  0  0  0  0  0
    2.1535  -17.6712   28.8150 N   0  0  0  0  0  0  0  0  0  0  0  0
    3.0190  -17.6704   27.8091 C   0  0  0  0  0  0  0  0  0  0  0  0
    3.8755  -16.6631   27.3755 N   0  0  0  0  0  0  0  0  0  0  0  0
    8.2552  -10.4317   18.9734 H   0  0  0  0  0  0  0  0  0  0  0  0
    9.9845  -10.2481   19.2959 H   0  0  0  0  0  0  0  0  0  0  0  0
    9.5036  -11.2856   18.0271 H   0  0  0  0  0  0  0  0  0  0  0  0
   10.8488  -14.3328   21.4819 H   0  0  0  0  0  0  0  0  0  0  0  0
    8.4639  -15.0389   20.5203 H   0  0  0  0  0  0  0  0  0  0  0  0
    5.8166  -13.4128   19.7485 H   0  0  0  0  0  0  0  0  0  0  0  0
    6.0371  -11.7286   20.1856 H   0  0  0  0  0  0  0  0  0  0  0  0
    3.5278  -13.0847   20.6652 H   0  0  0  0  0  0  0  0  0  0  0  0
    4.9865  -11.0143   22.5420 H   0  0  0  0  0  0  0  0  0  0  0  0
    3.3842  -10.7963   22.5771 H   0  0  0  0  0  0  0  0  0  0  0  0
    3.3851  -11.9999   22.9022 H   0  0  0  0  0  0  0  0  0  0  0  0
    2.8329  -13.2832   23.9053 H   0  0  0  0  0  0  0  0  0  0  0  0
    2.7540  -14.6791   22.6995 H   0  0  0  0  0  0  0  0  0  0  0  0
    4.9020  -18.1453   24.4597 H   0  0  0  0  0  0  0  0  0  0  0  0
    3.3943  -19.9828   25.3686 H   0  0  0  0  0  0  0  0  0  0  0  0
    1.5588  -20.5501   27.2737 H   0  0  0  0  0  0  0  0  0  0  0  0
    0.6758  -19.0861   29.4629 H   0  0  0  0  0  0  0  0  0  0  0  0
  1  2  1  0
  2  3  2  0
  3  4  1  0
  4  5  2  0
  5  6  1  0
  6  7  1  0
  7  8  1  0
  8  9  1  0
  8 10  1  0
 10 11  1  0
 11 12  1  0
 12 13  2  0
 12 14  1  0
 14 15  1  0
 15 16  2  0
 16 17  1  0
 17 18  1  0
 18 19  2  0
 19 20  1  0
 20 21  2  0
 21 22  1  0
  6  2  1  0
 22 14  2  0
 21 17  1  0
  1 23  1  0
  1 24  1  0
  1 25  1  0
  4 26  1  0
  5 27  1  0
  7 28  1  0
  7 29  1  0
  8 30  1  0
  9 31  1  0
  9 32  1  0
  9 33  1  0
 10 34  1  0
 10 35  1  0
 15 36  1  0
 16 37  1  0
 18 38  1  0
 19 39  1  0
M  END
>  <Energy>  (378) 
539.76555562573424

>  <compound_id>  (378) 
8701

>  <target_id>  (378) 
1

>  <reference_id>  (378) 
107

>  <inspiration_ids>  (378) 
[114, 107]

>  <energy_score>  (378) 
421.48207559532773

>  <distance_score>  (378) 
15.339224157787203

>  <path>  (378) 
/opt/xchem-fragalysis-2/maxwin/BulkDock/SCRATCH/511022/C8701-P107/C8701-P107.minimised.mol

>  <scratch_subdir>  (378) 
/opt/xchem-fragalysis-2/maxwin/BulkDock/SCRATCH/511022/C8701-P107

>  <fragmenstein_runtime>  (378) 
26.330793142318726

>  <fragmenstein_outcome>  (378) 
too moved

>  <fragmenstein_mode>  (378) 
expansion

>  <fragmenstein_error>  (378) 


$$$$
C8698-P114
     RDKit          3D

 32 35  0  0  0  0  0  0  0  0999 V2000
   -1.6927  -13.1820   25.2550 O   0  0  0  0  0  0  0  0  0  0  0  0
   -0.8186  -13.8575   24.5992 C   0  0  0  0  0  0  0  0  0  0  0  0
   -0.7033  -15.2186   25.2503 C   0  0  0  0  0  0  0  0  0  0  0  0
   -2.1767  -15.8881   25.2142 C   0  0  0  0  0  0  0  0  0  0  0  0
   -2.5620  -16.7972   26.1116 C   0  0  0  0  0  0  0  0  0  0  0  0
   -1.7041  -17.0716   27.1385 N   0  0  0  0  0  0  0  0  0  0  0  0
   -1.9072  -17.8970   28.2135 C   0  0  0  0  0  0  0  0  0  0  0  0
   -0.7979  -17.7189   28.9950 C   0  0  0  0  0  0  0  0  0  0  0  0
    0.0701  -16.8205   28.4121 N   0  0  0  0  0  0  0  0  0  0  0  0
   -0.4745  -16.4141   27.2751 C   0  0  0  0  0  0  0  0  0  0  0  0
   -0.0113  -15.4452   26.3674 N   0  0  0  0  0  0  0  0  0  0  0  0
   -0.0821  -12.8930   22.9323 N   0  0  0  0  0  0  0  0  0  0  0  0
    1.4744  -11.7234   22.9551 C   0  0  0  0  0  0  0  0  0  0  0  0
    1.0529  -10.0477   21.6945 C   0  0  0  0  0  0  0  0  0  0  0  0
    2.4317   -8.5217   22.5879 C   0  0  0  0  0  0  0  0  0  0  0  0
    2.2693   -7.8185   23.7606 N   0  0  0  0  0  0  0  0  0  0  0  0
    3.6921   -7.0160   24.5467 C   0  0  0  0  0  0  0  0  0  0  0  0
    4.8084   -7.3398   23.9595 C   0  0  0  0  0  0  0  0  0  0  0  0
    4.1679   -8.1195   22.9201 N   0  0  0  0  0  0  0  0  0  0  0  0
   -0.3785  -10.9950   22.1890 C   0  0  0  0  0  0  0  0  0  0  0  0
   -2.9405  -15.4561   24.5802 H   0  0  0  0  0  0  0  0  0  0  0  0
   -3.5527  -17.2309   26.1468 H   0  0  0  0  0  0  0  0  0  0  0  0
   -2.7963  -18.4980   28.3352 H   0  0  0  0  0  0  0  0  0  0  0  0
   -0.5659  -18.1805   29.9463 H   0  0  0  0  0  0  0  0  0  0  0  0
    2.5276  -12.1579   22.8346 H   0  0  0  0  0  0  0  0  0  0  0  0
    1.7346  -11.7818   24.0317 H   0  0  0  0  0  0  0  0  0  0  0  0
    0.3817   -9.1799   21.5183 H   0  0  0  0  0  0  0  0  0  0  0  0
    3.6382   -6.3486   25.4092 H   0  0  0  0  0  0  0  0  0  0  0  0
    5.8552   -7.0748   24.0288 H   0  0  0  0  0  0  0  0  0  0  0  0
    4.8631   -8.2414   22.2512 H   0  0  0  0  0  0  0  0  0  0  0  0
   -1.1096  -11.1209   21.3394 H   0  0  0  0  0  0  0  0  0  0  0  0
   -0.8910  -10.1702   22.6846 H   0  0  0  0  0  0  0  0  0  0  0  0
  1  2  2  0
  2  3  1  0
  3  4  1  0
  4  5  2  0
  5  6  1  0
  6  7  1  0
  7  8  2  0
  8  9  1  0
  9 10  2  0
 10 11  1  0
  2 12  1  0
 12 13  1  0
 13 14  1  0
 14 15  1  0
 15 16  2  0
 16 17  1  0
 17 18  2  0
 18 19  1  0
 14 20  1  0
 11  3  2  0
 20 12  1  0
 10  6  1  0
 19 15  1  0
  4 21  1  0
  5 22  1  0
  7 23  1  0
  8 24  1  0
 13 25  1  0
 13 26  1  0
 14 27  1  0
 17 28  1  0
 18 29  1  0
 19 30  1  0
 20 31  1  0
 20 32  1  0
M  END
>  <Energy>  (379) 
888.44461817782746

>  <compound_id>  (379) 
8698

>  <target_id>  (379) 
1

>  <reference_id>  (379) 
114

>  <inspiration_ids>  (379) 
[114, 107]

>  <energy_score>  (379) 
780.0391711470903

>  <distance_score>  (379) 
13.407841841148443

>  <path>  (379) 
/opt/xchem-fragalysis-2/maxwin/BulkDock/SCRATCH/511022/C8698-P114/C8698-P114.minimised.mol

>  <scratch_subdir>  (379) 
/opt/xchem-fragalysis-2/maxwin/BulkDock/SCRATCH/511022/C8698-P114

>  <fragmenstein_runtime>  (379) 
27.13152265548706

>  <fragmenstein_outcome>  (379) 
too moved

>  <fragmenstein_mode>  (379) 
expansion

>  <fragmenstein_error>  (379) 


$$$$
C8698-P107
     RDKit          3D

 32 35  0  0  0  0  0  0  0  0999 V2000
    2.5160  -15.1661   27.8782 O   0  0  0  0  0  0  0  0  0  0  0  0
    1.9955  -15.5158   26.8427 C   0  0  0  0  0  0  0  0  0  0  0  0
    0.6523  -16.3718   27.0721 C   0  0  0  0  0  0  0  0  0  0  0  0
    0.8764  -17.8125   27.4946 C   0  0  0  0  0  0  0  0  0  0  0  0
   -0.2047  -18.5286   27.8545 C   0  0  0  0  0  0  0  0  0  0  0  0
   -1.4583  -17.9412   27.8075 N   0  0  0  0  0  0  0  0  0  0  0  0
   -2.6862  -18.4503   28.1580 C   0  0  0  0  0  0  0  0  0  0  0  0
   -3.5776  -17.4367   27.9081 C   0  0  0  0  0  0  0  0  0  0  0  0
   -2.9286  -16.3339   27.3965 N   0  0  0  0  0  0  0  0  0  0  0  0
   -1.6359  -16.6286   27.3633 C   0  0  0  0  0  0  0  0  0  0  0  0
   -0.5522  -15.8383   26.9959 N   0  0  0  0  0  0  0  0  0  0  0  0
    2.4354  -15.3456   25.4552 N   0  0  0  0  0  0  0  0  0  0  0  0
    1.8900  -14.0194   24.8472 C   0  0  0  0  0  0  0  0  0  0  0  0
    3.0178  -13.8774   23.8431 C   0  0  0  0  0  0  0  0  0  0  0  0
    3.4718  -12.5239   22.4279 C   0  0  0  0  0  0  0  0  0  0  0  0
    3.5638  -13.1242   21.2016 N   0  0  0  0  0  0  0  0  0  0  0  0
    4.6075  -12.7988   20.3187 C   0  0  0  0  0  0  0  0  0  0  0  0
    5.2866  -11.8020   20.8578 C   0  0  0  0  0  0  0  0  0  0  0  0
    4.3918  -11.4027   22.1246 N   0  0  0  0  0  0  0  0  0  0  0  0
    3.7718  -14.7531   24.8595 C   0  0  0  0  0  0  0  0  0  0  0  0
    1.8905  -18.1889   27.5219 H   0  0  0  0  0  0  0  0  0  0  0  0
   -0.1453  -19.5537   28.1969 H   0  0  0  0  0  0  0  0  0  0  0  0
   -2.8094  -19.4475   28.5546 H   0  0  0  0  0  0  0  0  0  0  0  0
   -4.6486  -17.4354   28.0656 H   0  0  0  0  0  0  0  0  0  0  0  0
    1.6565  -13.3468   25.6631 H   0  0  0  0  0  0  0  0  0  0  0  0
    0.9333  -14.2782   24.4481 H   0  0  0  0  0  0  0  0  0  0  0  0
    2.8513  -14.6504   23.0937 H   0  0  0  0  0  0  0  0  0  0  0  0
    4.7389  -13.2766   19.3689 H   0  0  0  0  0  0  0  0  0  0  0  0
    6.1510  -11.2666   20.5743 H   0  0  0  0  0  0  0  0  0  0  0  0
    4.8944  -10.7838   22.7456 H   0  0  0  0  0  0  0  0  0  0  0  0
    4.3916  -14.3445   25.6588 H   0  0  0  0  0  0  0  0  0  0  0  0
    4.3347  -15.5872   24.4221 H   0  0  0  0  0  0  0  0  0  0  0  0
  1  2  2  0
  2  3  1  0
  3  4  1  0
  4  5  2  0
  5  6  1  0
  6  7  1  0
  7  8  2  0
  8  9  1  0
  9 10  2  0
 10 11  1  0
  2 12  1  0
 12 13  1  0
 13 14  1  0
 14 15  1  0
 15 16  2  0
 16 17  1  0
 17 18  2  0
 18 19  1  0
 14 20  1  0
 11  3  2  0
 20 12  1  0
 10  6  1  0
 19 15  1  0
  4 21  1  0
  5 22  1  0
  7 23  1  0
  8 24  1  0
 13 25  1  0
 13 26  1  0
 14 27  1  0
 17 28  1  0
 18 29  1  0
 19 30  1  0
 20 31  1  0
 20 32  1  0
M  END
>  <Energy>  (380) 
224.06759141717521

>  <compound_id>  (380) 
8698

>  <target_id>  (380) 
1

>  <reference_id>  (380) 
107

>  <inspiration_ids>  (380) 
[114, 107]

>  <energy_score>  (380) 
115.66214438643885

>  <distance_score>  (380) 
13.634793500883733

>  <path>  (380) 
/opt/xchem-fragalysis-2/maxwin/BulkDock/SCRATCH/511022/C8698-P107/C8698-P107.minimised.mol

>  <scratch_subdir>  (380) 
/opt/xchem-fragalysis-2/maxwin/BulkDock/SCRATCH/511022/C8698-P107

>  <fragmenstein_runtime>  (380) 
36.549318075180054

>  <fragmenstein_outcome>  (380) 
too moved

>  <fragmenstein_mode>  (380) 
expansion

>  <fragmenstein_error>  (380) 


$$$$
C8702-P114
     RDKit          3D

 31 33  0  0  0  0  0  0  0  0999 V2000
    3.7717  -14.6767   29.3237 C   0  0  0  0  0  0  0  0  0  0  0  0
    2.8641  -13.6579   28.9120 O   0  0  0  0  0  0  0  0  0  0  0  0
    1.5455  -13.9874   29.0653 C   0  0  0  0  0  0  0  0  0  0  0  0
    1.1723  -15.0286   29.5979 O   0  0  0  0  0  0  0  0  0  0  0  0
    0.6415  -12.9169   28.6209 C   0  0  0  0  0  0  0  0  0  0  0  0
    1.0836  -11.5904   28.4072 N   0  0  0  0  0  0  0  0  0  0  0  0
   -0.0065  -10.8747   28.3120 C   0  0  0  0  0  0  0  0  0  0  0  0
   -1.1245  -11.6589   28.3677 N   0  0  0  0  0  0  0  0  0  0  0  0
   -0.7520  -12.9721   28.5492 C   0  0  0  0  0  0  0  0  0  0  0  0
   -1.6833  -13.9885   28.6901 N   0  0  0  0  0  0  0  0  0  0  0  0
   -1.6066  -15.3940   28.3634 C   0  0  0  0  0  0  0  0  0  0  0  0
   -0.7496  -16.0236   27.8152 O   0  0  0  0  0  0  0  0  0  0  0  0
   -2.8200  -16.1937   28.9291 C   0  0  0  0  0  0  0  0  0  0  0  0
   -2.7210  -17.7021   28.8495 C   0  0  0  0  0  0  0  0  0  0  0  0
   -3.5897  -18.3841   29.6091 C   0  0  0  0  0  0  0  0  0  0  0  0
   -4.5234  -17.6766   30.3412 N   0  0  0  0  0  0  0  0  0  0  0  0
   -5.3429  -18.0976   31.3397 C   0  0  0  0  0  0  0  0  0  0  0  0
   -6.0654  -16.9909   31.7090 C   0  0  0  0  0  0  0  0  0  0  0  0
   -5.6899  -15.8931   30.9781 N   0  0  0  0  0  0  0  0  0  0  0  0
   -4.6866  -16.2970   30.2218 C   0  0  0  0  0  0  0  0  0  0  0  0
   -3.7989  -15.5378   29.4985 N   0  0  0  0  0  0  0  0  0  0  0  0
    4.7871  -14.3339   29.1061 H   0  0  0  0  0  0  0  0  0  0  0  0
    3.6893  -14.8497   30.4012 H   0  0  0  0  0  0  0  0  0  0  0  0
    3.5948  -15.6023   28.7667 H   0  0  0  0  0  0  0  0  0  0  0  0
   -0.0656   -9.7987   28.2214 H   0  0  0  0  0  0  0  0  0  0  0  0
   -2.0763  -11.3283   28.3140 H   0  0  0  0  0  0  0  0  0  0  0  0
   -2.6033  -13.7881   29.0838 H   0  0  0  0  0  0  0  0  0  0  0  0
   -1.9276  -18.1582   28.2718 H   0  0  0  0  0  0  0  0  0  0  0  0
   -3.5781  -19.4611   29.7175 H   0  0  0  0  0  0  0  0  0  0  0  0
   -5.3394  -19.1166   31.6978 H   0  0  0  0  0  0  0  0  0  0  0  0
   -6.8196  -16.9272   32.4808 H   0  0  0  0  0  0  0  0  0  0  0  0
  1  2  1  0
  2  3  1  0
  3  4  2  0
  3  5  1  0
  5  6  1  0
  6  7  2  0
  7  8  1  0
  8  9  1  0
  9 10  1  0
 10 11  1  0
 11 12  2  0
 11 13  1  0
 13 14  1  0
 14 15  2  0
 15 16  1  0
 16 17  1  0
 17 18  2  0
 18 19  1  0
 19 20  2  0
 20 21  1  0
  9  5  2  0
 21 13  2  0
 20 16  1  0
  1 22  1  0
  1 23  1  0
  1 24  1  0
  7 25  1  0
  8 26  1  0
 10 27  1  0
 14 28  1  0
 15 29  1  0
 17 30  1  0
 18 31  1  0
M  END
>  <Energy>  (381) 
120.82236356191846

>  <compound_id>  (381) 
8702

>  <target_id>  (381) 
1

>  <reference_id>  (381) 
114

>  <inspiration_ids>  (381) 
[114, 107]

>  <energy_score>  (381) 
-6.740952248872077

>  <distance_score>  (381) 
14.817709468199428

>  <path>  (381) 
/opt/xchem-fragalysis-2/maxwin/BulkDock/SCRATCH/511022/C8702-P114/C8702-P114.minimised.mol

>  <scratch_subdir>  (381) 
/opt/xchem-fragalysis-2/maxwin/BulkDock/SCRATCH/511022/C8702-P114

>  <fragmenstein_runtime>  (381) 
16.485754013061523

>  <fragmenstein_outcome>  (381) 
too moved

>  <fragmenstein_mode>  (381) 
expansion

>  <fragmenstein_error>  (381) 


$$$$
C8702-P107
     RDKit          3D

 31 33  0  0  0  0  0  0  0  0999 V2000
   -3.8399  -10.5389   20.1828 C   0  0  0  0  0  0  0  0  0  0  0  0
   -5.2098  -10.8430   20.4822 O   0  0  0  0  0  0  0  0  0  0  0  0
   -5.6908  -10.9145   21.7642 C   0  0  0  0  0  0  0  0  0  0  0  0
   -6.8466  -11.2867   21.9593 O   0  0  0  0  0  0  0  0  0  0  0  0
   -4.8423  -10.4444   22.8736 C   0  0  0  0  0  0  0  0  0  0  0  0
   -3.9375   -9.3737   22.7481 N   0  0  0  0  0  0  0  0  0  0  0  0
   -3.6211   -9.0306   23.9711 C   0  0  0  0  0  0  0  0  0  0  0  0
   -4.1452   -9.9160   24.8764 N   0  0  0  0  0  0  0  0  0  0  0  0
   -4.8723  -10.8826   24.2026 C   0  0  0  0  0  0  0  0  0  0  0  0
   -5.4228  -11.9909   24.8413 N   0  0  0  0  0  0  0  0  0  0  0  0
   -5.9461  -13.2298   24.3060 C   0  0  0  0  0  0  0  0  0  0  0  0
   -5.9673  -13.6504   23.1848 O   0  0  0  0  0  0  0  0  0  0  0  0
   -6.5834  -14.1685   25.3699 C   0  0  0  0  0  0  0  0  0  0  0  0
   -7.8001  -14.9399   24.9082 C   0  0  0  0  0  0  0  0  0  0  0  0
   -8.3122  -15.8198   25.7808 C   0  0  0  0  0  0  0  0  0  0  0  0
   -7.6997  -15.9774   27.0105 N   0  0  0  0  0  0  0  0  0  0  0  0
   -7.9950  -16.8355   28.0323 C   0  0  0  0  0  0  0  0  0  0  0  0
   -7.0223  -16.6226   28.9775 C   0  0  0  0  0  0  0  0  0  0  0  0
   -6.1877  -15.6065   28.5871 N   0  0  0  0  0  0  0  0  0  0  0  0
   -6.5890  -15.2273   27.3898 C   0  0  0  0  0  0  0  0  0  0  0  0
   -6.0417  -14.2802   26.5533 N   0  0  0  0  0  0  0  0  0  0  0  0
   -3.6415  -10.8866   19.1647 H   0  0  0  0  0  0  0  0  0  0  0  0
   -3.1535  -11.0625   20.8510 H   0  0  0  0  0  0  0  0  0  0  0  0
   -3.6850   -9.4573   20.2061 H   0  0  0  0  0  0  0  0  0  0  0  0
   -3.0149   -8.1818   24.2636 H   0  0  0  0  0  0  0  0  0  0  0  0
   -4.0057   -9.8817   25.8759 H   0  0  0  0  0  0  0  0  0  0  0  0
   -5.5035  -12.0073   25.8566 H   0  0  0  0  0  0  0  0  0  0  0  0
   -8.1937  -14.7585   23.9156 H   0  0  0  0  0  0  0  0  0  0  0  0
   -9.1784  -16.4276   25.5640 H   0  0  0  0  0  0  0  0  0  0  0  0
   -8.8299  -17.5097   27.9811 H   0  0  0  0  0  0  0  0  0  0  0  0
   -6.8728  -17.1315   29.9229 H   0  0  0  0  0  0  0  0  0  0  0  0
  1  2  1  0
  2  3  1  0
  3  4  2  0
  3  5  1  0
  5  6  1  0
  6  7  2  0
  7  8  1  0
  8  9  1  0
  9 10  1  0
 10 11  1  0
 11 12  2  0
 11 13  1  0
 13 14  1  0
 14 15  2  0
 15 16  1  0
 16 17  1  0
 17 18  2  0
 18 19  1  0
 19 20  2  0
 20 21  1  0
  9  5  2  0
 21 13  2  0
 20 16  1  0
  1 22  1  0
  1 23  1  0
  1 24  1  0
  7 25  1  0
  8 26  1  0
 10 27  1  0
 14 28  1  0
 15 29  1  0
 17 30  1  0
 18 31  1  0
M  END
>  <Energy>  (382) 
124.74419636498088

>  <compound_id>  (382) 
8702

>  <target_id>  (382) 
1

>  <reference_id>  (382) 
107

>  <inspiration_ids>  (382) 
[114, 107]

>  <energy_score>  (382) 
-2.8191194458131577

>  <distance_score>  (382) 
14.828780309925428

>  <path>  (382) 
/opt/xchem-fragalysis-2/maxwin/BulkDock/SCRATCH/511022/C8702-P107/C8702-P107.minimised.mol

>  <scratch_subdir>  (382) 
/opt/xchem-fragalysis-2/maxwin/BulkDock/SCRATCH/511022/C8702-P107

>  <fragmenstein_runtime>  (382) 
25.659701585769653

>  <fragmenstein_outcome>  (382) 
too moved

>  <fragmenstein_mode>  (382) 
expansion

>  <fragmenstein_error>  (382) 


$$$$
C8704-P114
     RDKit          3D

 29 32  0  0  0  0  0  0  0  0999 V2000
    0.0376  -15.9276   14.4453 C   0  0  0  0  0  0  0  0  0  0  0  0
   -1.2831  -15.2345   14.4196 C   0  0  0  0  0  0  0  0  0  0  0  0
   -1.4300  -14.2148   13.5007 N   0  0  0  0  0  0  0  0  0  0  0  0
   -2.6831  -13.7138   13.6224 C   0  0  0  0  0  0  0  0  0  0  0  0
   -3.3108  -14.2397   14.6525 N   0  0  0  0  0  0  0  0  0  0  0  0
   -2.5057  -15.2832   15.1200 C   0  0  0  0  0  0  0  0  0  0  0  0
   -3.1108  -16.3193   16.0940 C   0  0  0  0  0  0  0  0  0  0  0  0
   -2.9586  -17.6419   15.9002 N   0  0  0  0  0  0  0  0  0  0  0  0
   -3.6764  -18.2424   16.9430 O   0  0  0  0  0  0  0  0  0  0  0  0
   -4.2229  -17.2498   17.7217 C   0  0  0  0  0  0  0  0  0  0  0  0
   -5.0223  -17.6590   18.9269 C   0  0  0  0  0  0  0  0  0  0  0  0
   -5.4676  -16.5875   19.9033 C   0  0  0  0  0  0  0  0  0  0  0  0
   -6.1828  -16.9763   20.9770 C   0  0  0  0  0  0  0  0  0  0  0  0
   -6.4929  -18.3157   21.1410 N   0  0  0  0  0  0  0  0  0  0  0  0
   -7.2364  -18.9495   22.1055 C   0  0  0  0  0  0  0  0  0  0  0  0
   -7.2350  -20.2738   21.7377 C   0  0  0  0  0  0  0  0  0  0  0  0
   -6.5019  -20.4614   20.5982 N   0  0  0  0  0  0  0  0  0  0  0  0
   -6.0640  -19.2731   20.2299 C   0  0  0  0  0  0  0  0  0  0  0  0
   -5.3168  -18.9264   19.1280 N   0  0  0  0  0  0  0  0  0  0  0  0
   -3.9117  -16.0393   17.2384 N   0  0  0  0  0  0  0  0  0  0  0  0
    0.4005  -16.0887   13.4233 H   0  0  0  0  0  0  0  0  0  0  0  0
    0.7997  -15.3508   14.9726 H   0  0  0  0  0  0  0  0  0  0  0  0
   -0.0548  -16.9180   14.8987 H   0  0  0  0  0  0  0  0  0  0  0  0
   -0.7148  -13.8907   12.8653 H   0  0  0  0  0  0  0  0  0  0  0  0
   -3.0677  -12.9383   12.9732 H   0  0  0  0  0  0  0  0  0  0  0  0
   -5.1944  -15.5593   19.6999 H   0  0  0  0  0  0  0  0  0  0  0  0
   -6.5465  -16.2825   21.7238 H   0  0  0  0  0  0  0  0  0  0  0  0
   -7.6922  -18.4151   22.9239 H   0  0  0  0  0  0  0  0  0  0  0  0
   -7.7139  -21.1203   22.2092 H   0  0  0  0  0  0  0  0  0  0  0  0
  1  2  1  0
  2  3  1  0
  3  4  1  0
  4  5  2  0
  5  6  1  0
  6  7  1  0
  7  8  2  0
  8  9  1  0
  9 10  1  0
 10 11  1  0
 11 12  1  0
 12 13  2  0
 13 14  1  0
 14 15  1  0
 15 16  2  0
 16 17  1  0
 17 18  2  0
 18 19  1  0
 10 20  2  0
  6  2  2  0
 20  7  1  0
 19 11  2  0
 18 14  1  0
  1 21  1  0
  1 22  1  0
  1 23  1  0
  3 24  1  0
  4 25  1  0
 12 26  1  0
 13 27  1  0
 15 28  1  0
 16 29  1  0
M  END
>  <Energy>  (383) 
104.73070753893018

>  <compound_id>  (383) 
8704

>  <target_id>  (383) 
1

>  <reference_id>  (383) 
114

>  <inspiration_ids>  (383) 
[114, 107]

>  <energy_score>  (383) 
-28.11774322661097

>  <distance_score>  (383) 
15.619025512155405

>  <path>  (383) 
/opt/xchem-fragalysis-2/maxwin/BulkDock/SCRATCH/511022/C8704-P114/C8704-P114.minimised.mol

>  <scratch_subdir>  (383) 
/opt/xchem-fragalysis-2/maxwin/BulkDock/SCRATCH/511022/C8704-P114

>  <fragmenstein_runtime>  (383) 
10.666827917098999

>  <fragmenstein_outcome>  (383) 
too moved

>  <fragmenstein_mode>  (383) 
expansion

>  <fragmenstein_error>  (383) 


$$$$
C8704-P107
     RDKit          3D

 29 32  0  0  0  0  0  0  0  0999 V2000
   -1.2409   -6.7219   23.9362 C   0  0  0  0  0  0  0  0  0  0  0  0
   -1.8610   -7.6603   22.9552 C   0  0  0  0  0  0  0  0  0  0  0  0
   -1.2896   -7.7280   21.6959 N   0  0  0  0  0  0  0  0  0  0  0  0
   -1.9128   -8.7182   21.0081 C   0  0  0  0  0  0  0  0  0  0  0  0
   -2.8545   -9.2862   21.7304 N   0  0  0  0  0  0  0  0  0  0  0  0
   -2.8776   -8.6426   22.9669 C   0  0  0  0  0  0  0  0  0  0  0  0
   -3.7899   -9.2723   24.0827 C   0  0  0  0  0  0  0  0  0  0  0  0
   -3.6999   -8.9700   25.3876 N   0  0  0  0  0  0  0  0  0  0  0  0
   -4.4478   -9.9757   26.0444 O   0  0  0  0  0  0  0  0  0  0  0  0
   -4.9643  -10.8353   25.0959 C   0  0  0  0  0  0  0  0  0  0  0  0
   -5.7629  -12.0470   25.5522 C   0  0  0  0  0  0  0  0  0  0  0  0
   -6.5868  -12.8132   24.5262 C   0  0  0  0  0  0  0  0  0  0  0  0
   -7.2374  -13.9209   24.9328 C   0  0  0  0  0  0  0  0  0  0  0  0
   -7.1674  -14.3056   26.2616 N   0  0  0  0  0  0  0  0  0  0  0  0
   -7.7361  -15.3755   26.9123 C   0  0  0  0  0  0  0  0  0  0  0  0
   -7.3423  -15.2467   28.2218 C   0  0  0  0  0  0  0  0  0  0  0  0
   -6.5617  -14.1260   28.3817 N   0  0  0  0  0  0  0  0  0  0  0  0
   -6.4445  -13.5628   27.1904 C   0  0  0  0  0  0  0  0  0  0  0  0
   -5.7418  -12.4319   26.8141 N   0  0  0  0  0  0  0  0  0  0  0  0
   -4.6061  -10.4293   23.8706 N   0  0  0  0  0  0  0  0  0  0  0  0
   -0.1701   -6.5979   23.7491 H   0  0  0  0  0  0  0  0  0  0  0  0
   -1.7198   -5.7403   23.8672 H   0  0  0  0  0  0  0  0  0  0  0  0
   -1.3661   -7.0925   24.9578 H   0  0  0  0  0  0  0  0  0  0  0  0
   -0.4935   -7.1958   21.3688 H   0  0  0  0  0  0  0  0  0  0  0  0
   -1.6317   -8.9948   20.0004 H   0  0  0  0  0  0  0  0  0  0  0  0
   -6.6145  -12.4422   23.5089 H   0  0  0  0  0  0  0  0  0  0  0  0
   -7.8348  -14.5298   24.2667 H   0  0  0  0  0  0  0  0  0  0  0  0
   -8.3458  -16.1058   26.4029 H   0  0  0  0  0  0  0  0  0  0  0  0
   -7.5695  -15.8924   29.0605 H   0  0  0  0  0  0  0  0  0  0  0  0
  1  2  1  0
  2  3  1  0
  3  4  1  0
  4  5  2  0
  5  6  1  0
  6  7  1  0
  7  8  2  0
  8  9  1  0
  9 10  1  0
 10 11  1  0
 11 12  1  0
 12 13  2  0
 13 14  1  0
 14 15  1  0
 15 16  2  0
 16 17  1  0
 17 18  2  0
 18 19  1  0
 10 20  2  0
  6  2  2  0
 20  7  1  0
 19 11  2  0
 18 14  1  0
  1 21  1  0
  1 22  1  0
  1 23  1  0
  3 24  1  0
  4 25  1  0
 12 26  1  0
 13 27  1  0
 15 28  1  0
 16 29  1  0
M  END
>  <Energy>  (384) 
105.89197146690654

>  <compound_id>  (384) 
8704

>  <target_id>  (384) 
1

>  <reference_id>  (384) 
107

>  <inspiration_ids>  (384) 
[114, 107]

>  <energy_score>  (384) 
-26.956479298631734

>  <distance_score>  (384) 
14.220765026032263

>  <path>  (384) 
/opt/xchem-fragalysis-2/maxwin/BulkDock/SCRATCH/511022/C8704-P107/C8704-P107.minimised.mol

>  <scratch_subdir>  (384) 
/opt/xchem-fragalysis-2/maxwin/BulkDock/SCRATCH/511022/C8704-P107

>  <fragmenstein_runtime>  (384) 
23.698381900787354

>  <fragmenstein_outcome>  (384) 
too moved

>  <fragmenstein_mode>  (384) 
expansion

>  <fragmenstein_error>  (384) 


$$$$
C8700-P114
     RDKit          3D

 37 39  0  0  0  0  0  0  0  0999 V2000
   -3.1245  -10.3392   20.0232 C   0  0  0  0  0  0  0  0  0  0  0  0
   -2.9706  -11.7037   19.5648 N   0  0  0  0  0  0  0  0  0  0  0  0
   -2.2013  -10.8800   18.3076 C   0  0  0  0  0  0  0  0  0  0  0  0
   -1.4001   -9.2377   18.4615 C   0  0  0  0  0  0  0  0  0  0  0  0
   -1.2312   -8.7522   19.6991 N   0  0  0  0  0  0  0  0  0  0  0  0
    0.1046   -8.4086   19.8943 C   0  0  0  0  0  0  0  0  0  0  0  0
    0.7685   -8.5172   18.6929 C   0  0  0  0  0  0  0  0  0  0  0  0
   -0.2609   -8.5810   17.7465 N   0  0  0  0  0  0  0  0  0  0  0  0
    0.0955   -8.2509   16.1815 C   0  0  0  0  0  0  0  0  0  0  0  0
   -0.3361   -7.1062   14.6557 C   0  0  0  0  0  0  0  0  0  0  0  0
    0.5185   -6.0110   14.5127 F   0  0  0  0  0  0  0  0  0  0  0  0
   -0.6212   -7.7321   13.4809 F   0  0  0  0  0  0  0  0  0  0  0  0
   -2.0569  -12.9747   20.1118 C   0  0  0  0  0  0  0  0  0  0  0  0
   -1.3844  -12.6489   20.9402 O   0  0  0  0  0  0  0  0  0  0  0  0
   -1.9223  -15.0411   19.8595 C   0  0  0  0  0  0  0  0  0  0  0  0
   -0.6909  -16.3838   20.2124 C   0  0  0  0  0  0  0  0  0  0  0  0
   -0.9166  -17.7144   20.3760 C   0  0  0  0  0  0  0  0  0  0  0  0
   -2.2001  -18.1626   20.4264 N   0  0  0  0  0  0  0  0  0  0  0  0
   -2.7258  -19.3795   20.7886 C   0  0  0  0  0  0  0  0  0  0  0  0
   -4.0783  -19.1716   20.8667 C   0  0  0  0  0  0  0  0  0  0  0  0
   -4.3690  -17.8777   20.5260 N   0  0  0  0  0  0  0  0  0  0  0  0
   -3.2140  -17.2599   20.2537 C   0  0  0  0  0  0  0  0  0  0  0  0
   -2.9776  -15.8650   20.0773 N   0  0  0  0  0  0  0  0  0  0  0  0
   -3.4259   -9.4853   19.4177 H   0  0  0  0  0  0  0  0  0  0  0  0
   -2.3184  -10.1583   20.7434 H   0  0  0  0  0  0  0  0  0  0  0  0
   -3.9202  -10.4247   20.7697 H   0  0  0  0  0  0  0  0  0  0  0  0
   -3.0046  -10.6764   17.5960 H   0  0  0  0  0  0  0  0  0  0  0  0
   -1.4736  -11.6037   17.9855 H   0  0  0  0  0  0  0  0  0  0  0  0
    0.4721   -8.2784   20.9035 H   0  0  0  0  0  0  0  0  0  0  0  0
    1.8112   -8.5409   18.4015 H   0  0  0  0  0  0  0  0  0  0  0  0
    1.1363   -7.9824   16.3733 H   0  0  0  0  0  0  0  0  0  0  0  0
   -0.5609   -7.5924   16.6204 H   0  0  0  0  0  0  0  0  0  0  0  0
   -1.0953   -6.3710   14.6057 H   0  0  0  0  0  0  0  0  0  0  0  0
    0.3802  -16.1888   20.2994 H   0  0  0  0  0  0  0  0  0  0  0  0
   -0.1253  -18.4245   20.5776 H   0  0  0  0  0  0  0  0  0  0  0  0
   -2.1044  -20.2393   20.9883 H   0  0  0  0  0  0  0  0  0  0  0  0
   -4.8540  -19.8748   21.1397 H   0  0  0  0  0  0  0  0  0  0  0  0
  1  2  1  0
  2  3  1  0
  3  4  1  0
  4  5  2  0
  5  6  1  0
  6  7  2  0
  7  8  1  0
  8  9  1  0
  9 10  1  0
 10 11  1  0
 10 12  1  0
  2 13  1  0
 13 14  2  0
 13 15  1  0
 15 16  1  0
 16 17  2  0
 17 18  1  0
 18 19  1  0
 19 20  2  0
 20 21  1  0
 21 22  2  0
 22 23  1  0
  8  4  1  0
 23 15  2  0
 22 18  1  0
  1 24  1  0
  1 25  1  0
  1 26  1  0
  3 27  1  0
  3 28  1  0
  6 29  1  0
  7 30  1  0
  9 31  1  0
  9 32  1  0
 10 33  1  0
 16 34  1  0
 17 35  1  0
 19 36  1  0
 20 37  1  0
M  END
>  <Energy>  (385) 
633.8978443784797

>  <compound_id>  (385) 
8700

>  <target_id>  (385) 
1

>  <reference_id>  (385) 
114

>  <inspiration_ids>  (385) 
[114, 107]

>  <energy_score>  (385) 
530.1496348145206

>  <distance_score>  (385) 
15.203049996884817

>  <path>  (385) 
/opt/xchem-fragalysis-2/maxwin/BulkDock/SCRATCH/511022/C8700-P114/C8700-P114.minimised.mol

>  <scratch_subdir>  (385) 
/opt/xchem-fragalysis-2/maxwin/BulkDock/SCRATCH/511022/C8700-P114

>  <fragmenstein_runtime>  (385) 
24.862009286880493

>  <fragmenstein_outcome>  (385) 
too moved

>  <fragmenstein_mode>  (385) 
expansion

>  <fragmenstein_error>  (385) 


$$$$
C8700-P107
     RDKit          3D

 37 39  0  0  0  0  0  0  0  0999 V2000
   -0.7739  -11.1886   28.7276 C   0  0  0  0  0  0  0  0  0  0  0  0
   -2.1349  -11.6920   28.6144 N   0  0  0  0  0  0  0  0  0  0  0  0
   -2.4773  -10.1050   28.7084 C   0  0  0  0  0  0  0  0  0  0  0  0
   -1.6797   -8.8809   28.0075 C   0  0  0  0  0  0  0  0  0  0  0  0
   -1.8818   -8.4185   26.7783 N   0  0  0  0  0  0  0  0  0  0  0  0
   -0.9840   -7.3953   26.5543 C   0  0  0  0  0  0  0  0  0  0  0  0
   -0.3024   -7.1199   27.7045 C   0  0  0  0  0  0  0  0  0  0  0  0
   -0.7466   -8.0401   28.6249 N   0  0  0  0  0  0  0  0  0  0  0  0
   -0.3626   -7.9899   30.0251 C   0  0  0  0  0  0  0  0  0  0  0  0
    1.0831   -8.3868   30.2565 C   0  0  0  0  0  0  0  0  0  0  0  0
    1.3256   -8.4347   31.5896 F   0  0  0  0  0  0  0  0  0  0  0  0
    1.9210   -7.4491   29.7457 F   0  0  0  0  0  0  0  0  0  0  0  0
   -2.9471  -12.4393   29.5583 C   0  0  0  0  0  0  0  0  0  0  0  0
   -2.7283  -12.7493   30.7039 O   0  0  0  0  0  0  0  0  0  0  0  0
   -4.2853  -13.0847   29.0780 C   0  0  0  0  0  0  0  0  0  0  0  0
   -5.5623  -12.5060   29.6195 C   0  0  0  0  0  0  0  0  0  0  0  0
   -6.6422  -13.3074   29.5840 C   0  0  0  0  0  0  0  0  0  0  0  0
   -6.5390  -14.5741   29.0330 N   0  0  0  0  0  0  0  0  0  0  0  0
   -7.4797  -15.5653   28.9247 C   0  0  0  0  0  0  0  0  0  0  0  0
   -6.8165  -16.6289   28.3671 C   0  0  0  0  0  0  0  0  0  0  0  0
   -5.5226  -16.2830   28.0590 N   0  0  0  0  0  0  0  0  0  0  0  0
   -5.3528  -15.0381   28.4740 C   0  0  0  0  0  0  0  0  0  0  0  0
   -4.2144  -14.2587   28.4873 N   0  0  0  0  0  0  0  0  0  0  0  0
   -0.5410  -10.7093   29.6854 H   0  0  0  0  0  0  0  0  0  0  0  0
   -0.1874  -12.1167   28.8234 H   0  0  0  0  0  0  0  0  0  0  0  0
   -0.3479  -10.7634   27.8194 H   0  0  0  0  0  0  0  0  0  0  0  0
   -3.4872  -10.0565   28.2742 H   0  0  0  0  0  0  0  0  0  0  0  0
   -2.6264   -9.8672   29.7727 H   0  0  0  0  0  0  0  0  0  0  0  0
   -0.9016   -6.9041   25.5919 H   0  0  0  0  0  0  0  0  0  0  0  0
    0.4247   -6.3546   27.9421 H   0  0  0  0  0  0  0  0  0  0  0  0
   -0.5278   -6.9597   30.3619 H   0  0  0  0  0  0  0  0  0  0  0  0
   -1.0346   -8.6241   30.6072 H   0  0  0  0  0  0  0  0  0  0  0  0
    1.3433   -9.3531   29.8175 H   0  0  0  0  0  0  0  0  0  0  0  0
   -5.5532  -11.5254   30.0726 H   0  0  0  0  0  0  0  0  0  0  0  0
   -7.6040  -13.0175   29.9877 H   0  0  0  0  0  0  0  0  0  0  0  0
   -8.4946  -15.4253   29.2589 H   0  0  0  0  0  0  0  0  0  0  0  0
   -7.1963  -17.6185   28.1520 H   0  0  0  0  0  0  0  0  0  0  0  0
  1  2  1  0
  2  3  1  0
  3  4  1  0
  4  5  2  0
  5  6  1  0
  6  7  2  0
  7  8  1  0
  8  9  1  0
  9 10  1  0
 10 11  1  0
 10 12  1  0
  2 13  1  0
 13 14  2  0
 13 15  1  0
 15 16  1  0
 16 17  2  0
 17 18  1  0
 18 19  1  0
 19 20  2  0
 20 21  1  0
 21 22  2  0
 22 23  1  0
  8  4  1  0
 23 15  2  0
 22 18  1  0
  1 24  1  0
  1 25  1  0
  1 26  1  0
  3 27  1  0
  3 28  1  0
  6 29  1  0
  7 30  1  0
  9 31  1  0
  9 32  1  0
 10 33  1  0
 16 34  1  0
 17 35  1  0
 19 36  1  0
 20 37  1  0
M  END
>  <Energy>  (386) 
168.53244323189406

>  <compound_id>  (386) 
8700

>  <target_id>  (386) 
1

>  <reference_id>  (386) 
107

>  <inspiration_ids>  (386) 
[114, 107]

>  <energy_score>  (386) 
64.78423366794254

>  <distance_score>  (386) 
14.666509101224571

>  <path>  (386) 
/opt/xchem-fragalysis-2/maxwin/BulkDock/SCRATCH/511022/C8700-P107/C8700-P107.minimised.mol

>  <scratch_subdir>  (386) 
/opt/xchem-fragalysis-2/maxwin/BulkDock/SCRATCH/511022/C8700-P107

>  <fragmenstein_runtime>  (386) 
21.998469352722168

>  <fragmenstein_outcome>  (386) 
too moved

>  <fragmenstein_mode>  (386) 
expansion

>  <fragmenstein_error>  (386) 


$$$$
C8697-P114
     RDKit          3D

 32 35  0  0  0  0  0  0  0  0999 V2000
   -1.9308  -11.8638   19.4377 O   0  0  0  0  0  0  0  0  0  0  0  0
   -1.5987  -12.1283   20.5787 C   0  0  0  0  0  0  0  0  0  0  0  0
   -2.1765  -14.1049   21.0397 C   0  0  0  0  0  0  0  0  0  0  0  0
   -2.5071  -15.6722   20.1641 C   0  0  0  0  0  0  0  0  0  0  0  0
   -3.5488  -16.5961   20.4829 C   0  0  0  0  0  0  0  0  0  0  0  0
   -4.3240  -16.6298   21.7556 N   0  0  0  0  0  0  0  0  0  0  0  0
   -5.3668  -17.4080   22.2203 C   0  0  0  0  0  0  0  0  0  0  0  0
   -5.5521  -17.0640   23.5515 C   0  0  0  0  0  0  0  0  0  0  0  0
   -4.6402  -16.1187   23.9934 N   0  0  0  0  0  0  0  0  0  0  0  0
   -3.9020  -15.8486   22.9352 C   0  0  0  0  0  0  0  0  0  0  0  0
   -2.5486  -14.7704   22.5755 N   0  0  0  0  0  0  0  0  0  0  0  0
   -0.5271  -10.7613   21.4411 N   0  0  0  0  0  0  0  0  0  0  0  0
    0.2112   -9.1630   20.8199 C   0  0  0  0  0  0  0  0  0  0  0  0
    0.7024   -8.4610   22.2413 C   0  0  0  0  0  0  0  0  0  0  0  0
    2.6319   -8.2445   23.1392 C   0  0  0  0  0  0  0  0  0  0  0  0
    4.3039   -7.9459   23.0907 C   0  0  0  0  0  0  0  0  0  0  0  0
    5.2023   -7.4155   24.1380 N   0  0  0  0  0  0  0  0  0  0  0  0
    4.3693   -6.8320   24.8518 C   0  0  0  0  0  0  0  0  0  0  0  0
    3.1385   -7.0906   24.2102 N   0  0  0  0  0  0  0  0  0  0  0  0
   -0.9777   -9.4617   22.3405 C   0  0  0  0  0  0  0  0  0  0  0  0
   -1.8475  -15.8209   19.3254 H   0  0  0  0  0  0  0  0  0  0  0  0
   -3.7502  -17.4384   19.8310 H   0  0  0  0  0  0  0  0  0  0  0  0
   -5.8690  -18.1157   21.5774 H   0  0  0  0  0  0  0  0  0  0  0  0
   -6.2931  -17.4643   24.2311 H   0  0  0  0  0  0  0  0  0  0  0  0
    1.1692   -9.3229   20.3547 H   0  0  0  0  0  0  0  0  0  0  0  0
   -0.5012   -8.6415   20.1677 H   0  0  0  0  0  0  0  0  0  0  0  0
    0.4654   -7.4037   22.2821 H   0  0  0  0  0  0  0  0  0  0  0  0
    4.8699   -7.9270   22.2353 H   0  0  0  0  0  0  0  0  0  0  0  0
    4.5243   -6.1356   25.6653 H   0  0  0  0  0  0  0  0  0  0  0  0
    2.3497   -6.4994   24.4142 H   0  0  0  0  0  0  0  0  0  0  0  0
   -1.6968   -8.9567   21.6263 H   0  0  0  0  0  0  0  0  0  0  0  0
   -1.8389   -9.3201   22.9981 H   0  0  0  0  0  0  0  0  0  0  0  0
  1  2  2  0
  2  3  1  0
  3  4  1  0
  4  5  2  0
  5  6  1  0
  6  7  1  0
  7  8  2  0
  8  9  1  0
  9 10  2  0
 10 11  1  0
  2 12  1  0
 12 13  1  0
 13 14  1  0
 14 15  1  0
 15 16  2  0
 16 17  1  0
 17 18  2  0
 18 19  1  0
 14 20  1  0
 11  3  2  0
 20 12  1  0
 10  6  1  0
 19 15  1  0
  4 21  1  0
  5 22  1  0
  7 23  1  0
  8 24  1  0
 13 25  1  0
 13 26  1  0
 14 27  1  0
 16 28  1  0
 18 29  1  0
 19 30  1  0
 20 31  1  0
 20 32  1  0
M  END
>  <Energy>  (387) 
914.56199499277818

>  <compound_id>  (387) 
8697

>  <target_id>  (387) 
1

>  <reference_id>  (387) 
114

>  <inspiration_ids>  (387) 
[114, 107]

>  <energy_score>  (387) 
756.3827543741204

>  <distance_score>  (387) 
14.204374810267621

>  <path>  (387) 
/opt/xchem-fragalysis-2/maxwin/BulkDock/SCRATCH/511022/C8697-P114/C8697-P114.minimised.mol

>  <scratch_subdir>  (387) 
/opt/xchem-fragalysis-2/maxwin/BulkDock/SCRATCH/511022/C8697-P114

>  <fragmenstein_runtime>  (387) 
28.863853693008423

>  <fragmenstein_outcome>  (387) 
too moved

>  <fragmenstein_mode>  (387) 
expansion

>  <fragmenstein_error>  (387) 


$$$$
C8697-P107
     RDKit          3D

 32 35  0  0  0  0  0  0  0  0999 V2000
    1.2005  -13.7974   26.4943 O   0  0  0  0  0  0  0  0  0  0  0  0
    0.7001  -13.7127   25.4231 C   0  0  0  0  0  0  0  0  0  0  0  0
   -1.4000  -14.0638   25.3606 C   0  0  0  0  0  0  0  0  0  0  0  0
   -2.2384  -15.2642   24.4626 C   0  0  0  0  0  0  0  0  0  0  0  0
   -3.5261  -15.7155   24.5670 C   0  0  0  0  0  0  0  0  0  0  0  0
   -4.1837  -15.5896   25.7490 N   0  0  0  0  0  0  0  0  0  0  0  0
   -5.4014  -16.0169   26.2071 C   0  0  0  0  0  0  0  0  0  0  0  0
   -5.3980  -15.6756   27.5398 C   0  0  0  0  0  0  0  0  0  0  0  0
   -4.2160  -15.0505   27.8669 N   0  0  0  0  0  0  0  0  0  0  0  0
   -3.4952  -15.0147   26.7591 C   0  0  0  0  0  0  0  0  0  0  0  0
   -2.1876  -14.6650   26.5388 N   0  0  0  0  0  0  0  0  0  0  0  0
    1.7295  -13.4676   23.9787 N   0  0  0  0  0  0  0  0  0  0  0  0
    3.2195  -13.4439   23.8174 C   0  0  0  0  0  0  0  0  0  0  0  0
    3.3678  -12.2824   22.7708 C   0  0  0  0  0  0  0  0  0  0  0  0
    4.9617  -11.0558   22.4205 C   0  0  0  0  0  0  0  0  0  0  0  0
    6.2723  -11.0480   23.2816 C   0  0  0  0  0  0  0  0  0  0  0  0
    7.4700  -11.2362   22.5367 N   0  0  0  0  0  0  0  0  0  0  0  0
    7.1723  -11.4428   21.2744 C   0  0  0  0  0  0  0  0  0  0  0  0
    5.8074  -11.4754   21.0279 N   0  0  0  0  0  0  0  0  0  0  0  0
    2.0353  -11.9990   23.5632 C   0  0  0  0  0  0  0  0  0  0  0  0
   -1.6007  -15.2622   23.6118 H   0  0  0  0  0  0  0  0  0  0  0  0
   -4.0820  -16.2214   23.7921 H   0  0  0  0  0  0  0  0  0  0  0  0
   -6.1225  -16.5173   25.5798 H   0  0  0  0  0  0  0  0  0  0  0  0
   -6.1669  -15.8427   28.2833 H   0  0  0  0  0  0  0  0  0  0  0  0
    3.7397  -13.6733   24.7433 H   0  0  0  0  0  0  0  0  0  0  0  0
    3.3413  -14.4521   23.3714 H   0  0  0  0  0  0  0  0  0  0  0  0
    3.3869  -12.7397   21.7783 H   0  0  0  0  0  0  0  0  0  0  0  0
    6.3923  -11.0833   24.3510 H   0  0  0  0  0  0  0  0  0  0  0  0
    7.9082  -11.5357   20.4954 H   0  0  0  0  0  0  0  0  0  0  0  0
    5.3296  -11.9029   20.2416 H   0  0  0  0  0  0  0  0  0  0  0  0
    1.9940  -11.6987   24.5693 H   0  0  0  0  0  0  0  0  0  0  0  0
    1.1926  -11.6626   22.9434 H   0  0  0  0  0  0  0  0  0  0  0  0
  1  2  2  0
  2  3  1  0
  3  4  1  0
  4  5  2  0
  5  6  1  0
  6  7  1  0
  7  8  2  0
  8  9  1  0
  9 10  2  0
 10 11  1  0
  2 12  1  0
 12 13  1  0
 13 14  1  0
 14 15  1  0
 15 16  2  0
 16 17  1  0
 17 18  2  0
 18 19  1  0
 14 20  1  0
 11  3  2  0
 20 12  1  0
 10  6  1  0
 19 15  1  0
  4 21  1  0
  5 22  1  0
  7 23  1  0
  8 24  1  0
 13 25  1  0
 13 26  1  0
 14 27  1  0
 16 28  1  0
 18 29  1  0
 19 30  1  0
 20 31  1  0
 20 32  1  0
M  END
>  <Energy>  (388) 
517.70899171604196

>  <compound_id>  (388) 
8697

>  <target_id>  (388) 
1

>  <reference_id>  (388) 
107

>  <inspiration_ids>  (388) 
[114, 107]

>  <energy_score>  (388) 
359.52975109738384

>  <distance_score>  (388) 
13.305319546621837

>  <path>  (388) 
/opt/xchem-fragalysis-2/maxwin/BulkDock/SCRATCH/511022/C8697-P107/C8697-P107.minimised.mol

>  <scratch_subdir>  (388) 
/opt/xchem-fragalysis-2/maxwin/BulkDock/SCRATCH/511022/C8697-P107

>  <fragmenstein_runtime>  (388) 
28.79315423965454

>  <fragmenstein_outcome>  (388) 
too moved

>  <fragmenstein_mode>  (388) 
expansion

>  <fragmenstein_error>  (388) 


$$$$
C8693-P114
     RDKit          3D

 28 30  0  0  0  0  0  0  0  0999 V2000
   -1.5786  -17.1841   26.0511 C   0  0  0  0  0  0  0  0  0  0  0  0
   -2.2166  -18.4742   26.0515 N   0  0  0  0  0  0  0  0  0  0  0  0
   -2.0676  -19.4488   25.1139 C   0  0  0  0  0  0  0  0  0  0  0  0
   -2.8056  -20.5070   25.4118 N   0  0  0  0  0  0  0  0  0  0  0  0
   -3.4785  -20.2298   26.5881 C   0  0  0  0  0  0  0  0  0  0  0  0
   -4.4480  -21.0389   27.2146 N   0  0  0  0  0  0  0  0  0  0  0  0
   -4.9456  -22.3989   26.8785 C   0  0  0  0  0  0  0  0  0  0  0  0
   -4.5853  -23.1748   26.0362 O   0  0  0  0  0  0  0  0  0  0  0  0
   -6.3292  -22.9772   27.7003 C   0  0  0  0  0  0  0  0  0  0  0  0
   -6.2028  -24.4674   28.6918 C   0  0  0  0  0  0  0  0  0  0  0  0
   -7.7880  -25.1543   28.9854 C   0  0  0  0  0  0  0  0  0  0  0  0
   -8.9800  -24.4596   28.6487 N   0  0  0  0  0  0  0  0  0  0  0  0
  -10.2785  -24.8434   28.7987 C   0  0  0  0  0  0  0  0  0  0  0  0
  -10.9774  -23.7004   28.5393 C   0  0  0  0  0  0  0  0  0  0  0  0
  -10.1383  -22.6888   28.1687 N   0  0  0  0  0  0  0  0  0  0  0  0
   -8.8990  -23.1837   28.0637 C   0  0  0  0  0  0  0  0  0  0  0  0
   -7.5988  -22.5124   27.5523 N   0  0  0  0  0  0  0  0  0  0  0  0
   -3.1030  -18.9506   26.9912 C   0  0  0  0  0  0  0  0  0  0  0  0
   -1.3532  -16.8937   25.0217 H   0  0  0  0  0  0  0  0  0  0  0  0
   -0.6584  -17.2585   26.6355 H   0  0  0  0  0  0  0  0  0  0  0  0
   -2.2548  -16.4512   26.4985 H   0  0  0  0  0  0  0  0  0  0  0  0
   -1.4271  -19.3553   24.2460 H   0  0  0  0  0  0  0  0  0  0  0  0
   -4.9220  -20.7073   28.0270 H   0  0  0  0  0  0  0  0  0  0  0  0
   -5.2681  -24.5672   29.2943 H   0  0  0  0  0  0  0  0  0  0  0  0
   -8.0423  -26.1857   28.7012 H   0  0  0  0  0  0  0  0  0  0  0  0
  -10.5717  -25.8213   29.1489 H   0  0  0  0  0  0  0  0  0  0  0  0
  -12.0297  -23.5281   28.6265 H   0  0  0  0  0  0  0  0  0  0  0  0
   -3.4057  -18.3523   27.8387 H   0  0  0  0  0  0  0  0  0  0  0  0
  1  2  1  0
  2  3  1  0
  3  4  2  0
  4  5  1  0
  5  6  1  0
  6  7  1  0
  7  8  2  0
  7  9  1  0
  9 10  1  0
 10 11  2  0
 11 12  1  0
 12 13  1  0
 13 14  2  0
 14 15  1  0
 15 16  2  0
 16 17  1  0
  5 18  2  0
 18  2  1  0
 17  9  2  0
 16 12  1  0
  1 19  1  0
  1 20  1  0
  1 21  1  0
  3 22  1  0
  6 23  1  0
 10 24  1  0
 11 25  1  0
 13 26  1  0
 14 27  1  0
 18 28  1  0
M  END
>  <Energy>  (389) 
198.63512631867192

>  <compound_id>  (389) 
8693

>  <target_id>  (389) 
1

>  <reference_id>  (389) 
114

>  <inspiration_ids>  (389) 
[114, 107]

>  <energy_score>  (389) 
133.16951997940936

>  <distance_score>  (389) 
15.745020289941243

>  <path>  (389) 
/opt/xchem-fragalysis-2/maxwin/BulkDock/SCRATCH/511022/C8693-P114/C8693-P114.minimised.mol

>  <scratch_subdir>  (389) 
/opt/xchem-fragalysis-2/maxwin/BulkDock/SCRATCH/511022/C8693-P114

>  <fragmenstein_runtime>  (389) 
21.539753675460815

>  <fragmenstein_outcome>  (389) 
too moved

>  <fragmenstein_mode>  (389) 
expansion

>  <fragmenstein_error>  (389) 


$$$$
C8693-P107
     RDKit          3D

 28 30  0  0  0  0  0  0  0  0999 V2000
    2.0977   -9.4983   21.7068 C   0  0  0  0  0  0  0  0  0  0  0  0
    3.0396  -10.9754   22.7835 N   0  0  0  0  0  0  0  0  0  0  0  0
    1.9874  -11.8100   23.4282 C   0  0  0  0  0  0  0  0  0  0  0  0
    2.2817  -12.5819   24.3782 N   0  0  0  0  0  0  0  0  0  0  0  0
    2.6114  -13.5180   23.6185 C   0  0  0  0  0  0  0  0  0  0  0  0
    1.0638  -14.4735   23.5796 N   0  0  0  0  0  0  0  0  0  0  0  0
   -0.0436  -14.7631   24.7652 C   0  0  0  0  0  0  0  0  0  0  0  0
   -0.1052  -14.3300   25.9082 O   0  0  0  0  0  0  0  0  0  0  0  0
   -1.2113  -15.8625   24.5316 C   0  0  0  0  0  0  0  0  0  0  0  0
   -0.9409  -17.1989   23.8892 C   0  0  0  0  0  0  0  0  0  0  0  0
   -1.7751  -18.2106   24.2156 C   0  0  0  0  0  0  0  0  0  0  0  0
   -2.8617  -17.9817   25.0515 N   0  0  0  0  0  0  0  0  0  0  0  0
   -3.7717  -18.8530   25.6035 C   0  0  0  0  0  0  0  0  0  0  0  0
   -4.5933  -18.0701   26.3784 C   0  0  0  0  0  0  0  0  0  0  0  0
   -4.2501  -16.7460   26.2612 N   0  0  0  0  0  0  0  0  0  0  0  0
   -3.1684  -16.7043   25.4979 C   0  0  0  0  0  0  0  0  0  0  0  0
   -2.3308  -15.6516   25.2125 N   0  0  0  0  0  0  0  0  0  0  0  0
    3.3352  -12.5214   22.5107 C   0  0  0  0  0  0  0  0  0  0  0  0
    1.1242  -10.0549   21.4541 H   0  0  0  0  0  0  0  0  0  0  0  0
    2.5435   -8.7273   22.4115 H   0  0  0  0  0  0  0  0  0  0  0  0
    1.2091   -8.8337   22.0970 H   0  0  0  0  0  0  0  0  0  0  0  0
    1.0008  -11.6262   22.9861 H   0  0  0  0  0  0  0  0  0  0  0  0
    0.8647  -15.0559   22.7791 H   0  0  0  0  0  0  0  0  0  0  0  0
   -0.0733  -17.3320   23.2621 H   0  0  0  0  0  0  0  0  0  0  0  0
   -1.6302  -19.2239   23.8626 H   0  0  0  0  0  0  0  0  0  0  0  0
   -3.7294  -19.9174   25.4282 H   0  0  0  0  0  0  0  0  0  0  0  0
   -5.4128  -18.3817   27.0121 H   0  0  0  0  0  0  0  0  0  0  0  0
    3.6408  -12.7689   21.4945 H   0  0  0  0  0  0  0  0  0  0  0  0
  1  2  1  0
  2  3  1  0
  3  4  2  0
  4  5  1  0
  5  6  1  0
  6  7  1  0
  7  8  2  0
  7  9  1  0
  9 10  1  0
 10 11  2  0
 11 12  1  0
 12 13  1  0
 13 14  2  0
 14 15  1  0
 15 16  2  0
 16 17  1  0
  5 18  2  0
 18  2  1  0
 17  9  2  0
 16 12  1  0
  1 19  1  0
  1 20  1  0
  1 21  1  0
  3 22  1  0
  6 23  1  0
 10 24  1  0
 11 25  1  0
 13 26  1  0
 14 27  1  0
 18 28  1  0
M  END
>  <Energy>  (390) 
480.60887022838284

>  <compound_id>  (390) 
8693

>  <target_id>  (390) 
1

>  <reference_id>  (390) 
107

>  <inspiration_ids>  (390) 
[114, 107]

>  <energy_score>  (390) 
415.14326388911456

>  <distance_score>  (390) 
14.057101836975521

>  <path>  (390) 
/opt/xchem-fragalysis-2/maxwin/BulkDock/SCRATCH/511022/C8693-P107/C8693-P107.minimised.mol

>  <scratch_subdir>  (390) 
/opt/xchem-fragalysis-2/maxwin/BulkDock/SCRATCH/511022/C8693-P107

>  <fragmenstein_runtime>  (390) 
21.30436110496521

>  <fragmenstein_outcome>  (390) 
too moved

>  <fragmenstein_mode>  (390) 
expansion

>  <fragmenstein_error>  (390) 


$$$$
C8705-P114
     RDKit          3D

 34 36  0  0  0  0  0  0  0  0999 V2000
   -3.7134   -6.9129   19.3461 C   0  0  0  0  0  0  0  0  0  0  0  0
   -3.5277   -8.3483   18.8758 C   0  0  0  0  0  0  0  0  0  0  0  0
   -2.6754   -9.1836   19.8293 C   0  0  0  0  0  0  0  0  0  0  0  0
   -3.3178   -9.4562   21.0985 N   0  0  0  0  0  0  0  0  0  0  0  0
   -3.0459   -8.8486   22.2875 C   0  0  0  0  0  0  0  0  0  0  0  0
   -3.6873   -9.4519   23.2771 N   0  0  0  0  0  0  0  0  0  0  0  0
   -4.4938  -10.4283   22.7067 C   0  0  0  0  0  0  0  0  0  0  0  0
   -5.2700  -11.2957   23.4740 N   0  0  0  0  0  0  0  0  0  0  0  0
   -6.0260  -12.4786   23.1014 C   0  0  0  0  0  0  0  0  0  0  0  0
   -6.2389  -12.9651   22.0243 O   0  0  0  0  0  0  0  0  0  0  0  0
   -6.7163  -13.2684   24.2954 C   0  0  0  0  0  0  0  0  0  0  0  0
   -7.9979  -13.9994   23.9169 C   0  0  0  0  0  0  0  0  0  0  0  0
   -8.6058  -14.7180   24.8744 C   0  0  0  0  0  0  0  0  0  0  0  0
   -8.0388  -14.7768   26.1343 N   0  0  0  0  0  0  0  0  0  0  0  0
   -8.4688  -15.4297   27.2647 C   0  0  0  0  0  0  0  0  0  0  0  0
   -7.4943  -15.1946   28.2018 C   0  0  0  0  0  0  0  0  0  0  0  0
   -6.5129  -14.3808   27.6844 N   0  0  0  0  0  0  0  0  0  0  0  0
   -6.8467  -14.1135   26.4336 C   0  0  0  0  0  0  0  0  0  0  0  0
   -6.1909  -13.3280   25.4943 N   0  0  0  0  0  0  0  0  0  0  0  0
   -4.2529  -10.4367   21.3447 C   0  0  0  0  0  0  0  0  0  0  0  0
   -4.2776   -6.8688   20.2826 H   0  0  0  0  0  0  0  0  0  0  0  0
   -2.7471   -6.4222   19.5006 H   0  0  0  0  0  0  0  0  0  0  0  0
   -4.2677   -6.3402   18.5957 H   0  0  0  0  0  0  0  0  0  0  0  0
   -3.0376   -8.3314   17.8951 H   0  0  0  0  0  0  0  0  0  0  0  0
   -4.5109   -8.8125   18.7352 H   0  0  0  0  0  0  0  0  0  0  0  0
   -1.7184   -8.6902   20.0330 H   0  0  0  0  0  0  0  0  0  0  0  0
   -2.4572  -10.1563   19.3733 H   0  0  0  0  0  0  0  0  0  0  0  0
   -2.3566   -8.0192   22.3886 H   0  0  0  0  0  0  0  0  0  0  0  0
   -5.2322  -11.2315   24.4869 H   0  0  0  0  0  0  0  0  0  0  0  0
   -8.3700  -13.9101   22.9038 H   0  0  0  0  0  0  0  0  0  0  0  0
   -9.5257  -15.2614   24.7100 H   0  0  0  0  0  0  0  0  0  0  0  0
   -9.3827  -16.0028   27.2946 H   0  0  0  0  0  0  0  0  0  0  0  0
   -7.4388  -15.5546   29.2218 H   0  0  0  0  0  0  0  0  0  0  0  0
   -4.6331  -11.0729   20.5568 H   0  0  0  0  0  0  0  0  0  0  0  0
  1  2  1  0
  2  3  1  0
  3  4  1  0
  4  5  1  0
  5  6  2  0
  6  7  1  0
  7  8  1  0
  8  9  1  0
  9 10  2  0
  9 11  1  0
 11 12  1  0
 12 13  2  0
 13 14  1  0
 14 15  1  0
 15 16  2  0
 16 17  1  0
 17 18  2  0
 18 19  1  0
  7 20  2  0
 20  4  1  0
 19 11  2  0
 18 14  1  0
  1 21  1  0
  1 22  1  0
  1 23  1  0
  2 24  1  0
  2 25  1  0
  3 26  1  0
  3 27  1  0
  5 28  1  0
  8 29  1  0
 12 30  1  0
 13 31  1  0
 15 32  1  0
 16 33  1  0
 20 34  1  0
M  END
>  <Energy>  (391) 
20.424333170208207

>  <compound_id>  (391) 
8705

>  <target_id>  (391) 
1

>  <reference_id>  (391) 
114

>  <inspiration_ids>  (391) 
[114, 107]

>  <energy_score>  (391) 
-32.1704691646334

>  <distance_score>  (391) 
14.838618950290478

>  <path>  (391) 
/opt/xchem-fragalysis-2/maxwin/BulkDock/SCRATCH/511022/C8705-P114/C8705-P114.minimised.mol

>  <scratch_subdir>  (391) 
/opt/xchem-fragalysis-2/maxwin/BulkDock/SCRATCH/511022/C8705-P114

>  <fragmenstein_runtime>  (391) 
23.256121397018433

>  <fragmenstein_outcome>  (391) 
too moved

>  <fragmenstein_mode>  (391) 
expansion

>  <fragmenstein_error>  (391) 


$$$$
C8705-P107
     RDKit          3D

 34 36  0  0  0  0  0  0  0  0999 V2000
    5.9772   -6.1565   16.3727 C   0  0  0  0  0  0  0  0  0  0  0  0
    5.4277   -6.3388   17.7649 C   0  0  0  0  0  0  0  0  0  0  0  0
    4.2071   -7.2905   18.0124 C   0  0  0  0  0  0  0  0  0  0  0  0
    2.5826   -8.1247   17.6171 N   0  0  0  0  0  0  0  0  0  0  0  0
    1.6809   -7.8644   16.3896 C   0  0  0  0  0  0  0  0  0  0  0  0
    0.3672   -8.1755   16.5847 N   0  0  0  0  0  0  0  0  0  0  0  0
    0.1735   -8.4595   17.9905 C   0  0  0  0  0  0  0  0  0  0  0  0
   -1.1012   -8.8908   18.5647 N   0  0  0  0  0  0  0  0  0  0  0  0
   -1.5200   -9.0878   20.0061 C   0  0  0  0  0  0  0  0  0  0  0  0
   -0.9299   -8.8534   21.0343 O   0  0  0  0  0  0  0  0  0  0  0  0
   -2.9464   -9.8522   20.3151 C   0  0  0  0  0  0  0  0  0  0  0  0
   -3.2804  -11.0639   19.4498 C   0  0  0  0  0  0  0  0  0  0  0  0
   -4.2297  -11.9189   19.8878 C   0  0  0  0  0  0  0  0  0  0  0  0
   -4.8747  -11.6814   21.0937 N   0  0  0  0  0  0  0  0  0  0  0  0
   -5.7973  -12.4428   21.7811 C   0  0  0  0  0  0  0  0  0  0  0  0
   -5.9854  -11.7886   22.9741 C   0  0  0  0  0  0  0  0  0  0  0  0
   -5.2191  -10.6440   23.0185 N   0  0  0  0  0  0  0  0  0  0  0  0
   -4.5633  -10.5638   21.8671 C   0  0  0  0  0  0  0  0  0  0  0  0
   -3.5927   -9.6514   21.4579 N   0  0  0  0  0  0  0  0  0  0  0  0
    1.5173   -8.5237   18.5041 C   0  0  0  0  0  0  0  0  0  0  0  0
    6.9624   -5.7472   16.3940 H   0  0  0  0  0  0  0  0  0  0  0  0
    5.2679   -5.5715   15.7871 H   0  0  0  0  0  0  0  0  0  0  0  0
    6.3452   -7.0025   15.8274 H   0  0  0  0  0  0  0  0  0  0  0  0
    5.1447   -5.4201   18.2304 H   0  0  0  0  0  0  0  0  0  0  0  0
    6.2952   -6.6672   18.3349 H   0  0  0  0  0  0  0  0  0  0  0  0
    4.2127   -6.9867   16.9673 H   0  0  0  0  0  0  0  0  0  0  0  0
    4.7531   -8.2218   18.3150 H   0  0  0  0  0  0  0  0  0  0  0  0
    2.1322   -7.5081   15.4659 H   0  0  0  0  0  0  0  0  0  0  0  0
   -1.8707   -9.1157   17.9628 H   0  0  0  0  0  0  0  0  0  0  0  0
   -2.6967  -11.2430   18.5572 H   0  0  0  0  0  0  0  0  0  0  0  0
   -4.4950  -12.8229   19.3536 H   0  0  0  0  0  0  0  0  0  0  0  0
   -6.1995  -13.3607   21.3788 H   0  0  0  0  0  0  0  0  0  0  0  0
   -6.6218  -12.0692   23.8034 H   0  0  0  0  0  0  0  0  0  0  0  0
    1.7573   -9.0089   19.4054 H   0  0  0  0  0  0  0  0  0  0  0  0
  1  2  1  0
  2  3  1  0
  3  4  1  0
  4  5  1  0
  5  6  2  0
  6  7  1  0
  7  8  1  0
  8  9  1  0
  9 10  2  0
  9 11  1  0
 11 12  1  0
 12 13  2  0
 13 14  1  0
 14 15  1  0
 15 16  2  0
 16 17  1  0
 17 18  2  0
 18 19  1  0
  7 20  2  0
 20  4  1  0
 19 11  2  0
 18 14  1  0
  1 21  1  0
  1 22  1  0
  1 23  1  0
  2 24  1  0
  2 25  1  0
  3 26  1  0
  3 27  1  0
  5 28  1  0
  8 29  1  0
 12 30  1  0
 13 31  1  0
 15 32  1  0
 16 33  1  0
 20 34  1  0
M  END
>  <Energy>  (392) 
234.8006547297982

>  <compound_id>  (392) 
8705

>  <target_id>  (392) 
1

>  <reference_id>  (392) 
107

>  <inspiration_ids>  (392) 
[114, 107]

>  <energy_score>  (392) 
182.2058523949567

>  <distance_score>  (392) 
16.12659592584428

>  <path>  (392) 
/opt/xchem-fragalysis-2/maxwin/BulkDock/SCRATCH/511022/C8705-P107/C8705-P107.minimised.mol

>  <scratch_subdir>  (392) 
/opt/xchem-fragalysis-2/maxwin/BulkDock/SCRATCH/511022/C8705-P107

>  <fragmenstein_runtime>  (392) 
19.257431745529175

>  <fragmenstein_outcome>  (392) 
too moved

>  <fragmenstein_mode>  (392) 
expansion

>  <fragmenstein_error>  (392) 


$$$$
C8694-P114
     RDKit          3D

 39 42  0  0  0  0  0  0  0  0999 V2000
    1.7612  -19.5874   15.2616 C   0  0  0  0  0  0  0  0  0  0  0  0
    0.5140  -20.0405   15.6214 C   0  0  0  0  0  0  0  0  0  0  0  0
    0.5488  -20.2362   16.9895 N   0  0  0  0  0  0  0  0  0  0  0  0
   -0.5447  -20.8200   17.7854 C   0  0  0  0  0  0  0  0  0  0  0  0
   -0.7263  -20.4416   19.3046 C   0  0  0  0  0  0  0  0  0  0  0  0
   -0.5324  -21.6364   20.2806 C   0  0  0  0  0  0  0  0  0  0  0  0
   -1.8361  -22.2249   20.8842 C   0  0  0  0  0  0  0  0  0  0  0  0
   -2.6538  -21.2202   21.6013 N   0  0  0  0  0  0  0  0  0  0  0  0
   -3.1860  -21.4488   22.9004 C   0  0  0  0  0  0  0  0  0  0  0  0
   -3.5771  -22.8601   23.3168 C   0  0  0  0  0  0  0  0  0  0  0  0
   -3.9087  -23.0696   24.5979 C   0  0  0  0  0  0  0  0  0  0  0  0
   -3.9357  -22.0027   25.4712 N   0  0  0  0  0  0  0  0  0  0  0  0
   -4.1672  -21.9629   26.8228 C   0  0  0  0  0  0  0  0  0  0  0  0
   -4.0990  -20.6326   27.1600 C   0  0  0  0  0  0  0  0  0  0  0  0
   -3.8589  -19.8625   26.0485 N   0  0  0  0  0  0  0  0  0  0  0  0
   -3.7029  -20.7028   25.0391 C   0  0  0  0  0  0  0  0  0  0  0  0
   -3.3364  -20.4411   23.7417 N   0  0  0  0  0  0  0  0  0  0  0  0
   -2.4608  -19.8434   21.1037 C   0  0  0  0  0  0  0  0  0  0  0  0
   -2.1115  -19.8138   19.5984 C   0  0  0  0  0  0  0  0  0  0  0  0
    1.8351  -19.9812   17.3590 C   0  0  0  0  0  0  0  0  0  0  0  0
    2.5701  -19.5497   16.3495 N   0  0  0  0  0  0  0  0  0  0  0  0
    2.1097  -19.3086   14.2767 H   0  0  0  0  0  0  0  0  0  0  0  0
   -0.3821  -20.2190   15.0433 H   0  0  0  0  0  0  0  0  0  0  0  0
   -1.4593  -20.5520   17.2413 H   0  0  0  0  0  0  0  0  0  0  0  0
   -0.4178  -21.9039   17.6764 H   0  0  0  0  0  0  0  0  0  0  0  0
    0.0340  -19.6925   19.5573 H   0  0  0  0  0  0  0  0  0  0  0  0
    0.0438  -22.4368   19.8027 H   0  0  0  0  0  0  0  0  0  0  0  0
    0.0861  -21.2840   21.1181 H   0  0  0  0  0  0  0  0  0  0  0  0
   -2.4442  -22.6673   20.0868 H   0  0  0  0  0  0  0  0  0  0  0  0
   -1.5445  -23.0359   21.5605 H   0  0  0  0  0  0  0  0  0  0  0  0
   -3.5608  -23.6487   22.5788 H   0  0  0  0  0  0  0  0  0  0  0  0
   -4.1625  -24.0427   24.9820 H   0  0  0  0  0  0  0  0  0  0  0  0
   -4.3329  -22.8543   27.4039 H   0  0  0  0  0  0  0  0  0  0  0  0
   -4.2025  -20.1803   28.1388 H   0  0  0  0  0  0  0  0  0  0  0  0
   -3.3814  -19.2698   21.2588 H   0  0  0  0  0  0  0  0  0  0  0  0
   -1.6522  -19.3706   21.6682 H   0  0  0  0  0  0  0  0  0  0  0  0
   -2.1143  -18.7766   19.2423 H   0  0  0  0  0  0  0  0  0  0  0  0
   -2.8942  -20.3449   19.0418 H   0  0  0  0  0  0  0  0  0  0  0  0
    2.1851  -20.1590   18.3666 H   0  0  0  0  0  0  0  0  0  0  0  0
  1  2  2  0
  2  3  1  0
  3  4  1  0
  4  5  1  0
  5  6  1  0
  6  7  1  0
  7  8  1  0
  8  9  1  0
  9 10  1  0
 10 11  2  0
 11 12  1  0
 12 13  1  0
 13 14  2  0
 14 15  1  0
 15 16  2  0
 16 17  1  0
  8 18  1  0
 18 19  1  0
  3 20  1  0
 20 21  2  0
 21  1  1  0
 19  5  1  0
 17  9  2  0
 16 12  1  0
  1 22  1  0
  2 23  1  0
  4 24  1  0
  4 25  1  0
  5 26  1  0
  6 27  1  0
  6 28  1  0
  7 29  1  0
  7 30  1  0
 10 31  1  0
 11 32  1  0
 13 33  1  0
 14 34  1  0
 18 35  1  0
 18 36  1  0
 19 37  1  0
 19 38  1  0
 20 39  1  0
M  END
>  <Energy>  (393) 
16.616729351726608

>  <compound_id>  (393) 
8694

>  <target_id>  (393) 
1

>  <reference_id>  (393) 
114

>  <inspiration_ids>  (393) 
[114, 107]

>  <energy_score>  (393) 
-20.777363912554733

>  <distance_score>  (393) 
14.990666053505345

>  <path>  (393) 
/opt/xchem-fragalysis-2/maxwin/BulkDock/SCRATCH/511022/C8694-P114/C8694-P114.minimised.mol

>  <scratch_subdir>  (393) 
/opt/xchem-fragalysis-2/maxwin/BulkDock/SCRATCH/511022/C8694-P114

>  <fragmenstein_runtime>  (393) 
29.01507544517517

>  <fragmenstein_outcome>  (393) 
too moved

>  <fragmenstein_mode>  (393) 
expansion

>  <fragmenstein_error>  (393) 


$$$$
C8694-P107
     RDKit          3D

 39 42  0  0  0  0  0  0  0  0999 V2000
   -0.3453   -8.3825   18.6109 C   0  0  0  0  0  0  0  0  0  0  0  0
   -1.5479   -8.8913   19.0121 C   0  0  0  0  0  0  0  0  0  0  0  0
   -1.2867   -9.1412   20.3292 N   0  0  0  0  0  0  0  0  0  0  0  0
   -2.0400  -10.0450   21.0763 C   0  0  0  0  0  0  0  0  0  0  0  0
   -1.4686  -11.5132   21.1797 C   0  0  0  0  0  0  0  0  0  0  0  0
   -2.0832  -12.7099   20.4113 C   0  0  0  0  0  0  0  0  0  0  0  0
   -2.0221  -14.5352   21.0327 C   0  0  0  0  0  0  0  0  0  0  0  0
   -1.6494  -14.8831   22.9296 N   0  0  0  0  0  0  0  0  0  0  0  0
   -2.9230  -15.3416   24.1549 C   0  0  0  0  0  0  0  0  0  0  0  0
   -4.2164  -14.4942   24.6395 C   0  0  0  0  0  0  0  0  0  0  0  0
   -5.1817  -14.9923   25.4352 C   0  0  0  0  0  0  0  0  0  0  0  0
   -5.0420  -16.2466   25.9606 N   0  0  0  0  0  0  0  0  0  0  0  0
   -5.8427  -16.9632   26.8152 C   0  0  0  0  0  0  0  0  0  0  0  0
   -5.1407  -18.1156   27.0654 C   0  0  0  0  0  0  0  0  0  0  0  0
   -3.9619  -18.1215   26.3568 N   0  0  0  0  0  0  0  0  0  0  0  0
   -3.8957  -16.9629   25.7177 C   0  0  0  0  0  0  0  0  0  0  0  0
   -2.9061  -16.4679   24.8963 N   0  0  0  0  0  0  0  0  0  0  0  0
   -0.3273  -13.8889   23.2921 C   0  0  0  0  0  0  0  0  0  0  0  0
   -0.1891  -11.9854   22.5613 C   0  0  0  0  0  0  0  0  0  0  0  0
   -0.1044   -8.6204   20.7472 C   0  0  0  0  0  0  0  0  0  0  0  0
    0.5056   -8.1454   19.6971 N   0  0  0  0  0  0  0  0  0  0  0  0
    0.0010   -8.2539   17.5975 H   0  0  0  0  0  0  0  0  0  0  0  0
   -2.4265   -9.2569   18.5035 H   0  0  0  0  0  0  0  0  0  0  0  0
   -3.0488  -10.0673   20.6276 H   0  0  0  0  0  0  0  0  0  0  0  0
   -2.1796   -9.5385   22.0398 H   0  0  0  0  0  0  0  0  0  0  0  0
   -2.4016  -11.5350   21.6644 H   0  0  0  0  0  0  0  0  0  0  0  0
   -1.8988  -12.5590   19.3308 H   0  0  0  0  0  0  0  0  0  0  0  0
   -3.1495  -12.4040   20.3440 H   0  0  0  0  0  0  0  0  0  0  0  0
   -2.8350  -15.1549   20.6043 H   0  0  0  0  0  0  0  0  0  0  0  0
   -1.5824  -15.3021   20.3206 H   0  0  0  0  0  0  0  0  0  0  0  0
   -4.2987  -13.4355   24.4682 H   0  0  0  0  0  0  0  0  0  0  0  0
   -6.0313  -14.4060   25.7610 H   0  0  0  0  0  0  0  0  0  0  0  0
   -6.7866  -16.5875   27.1805 H   0  0  0  0  0  0  0  0  0  0  0  0
   -5.4067  -18.9354   27.7184 H   0  0  0  0  0  0  0  0  0  0  0  0
   -0.6826  -14.0317   24.3369 H   0  0  0  0  0  0  0  0  0  0  0  0
    0.6525  -14.2351   23.6537 H   0  0  0  0  0  0  0  0  0  0  0  0
   -0.1383  -10.8608   22.7391 H   0  0  0  0  0  0  0  0  0  0  0  0
    0.8981  -11.7090   22.5543 H   0  0  0  0  0  0  0  0  0  0  0  0
    0.2663   -8.6539   21.7600 H   0  0  0  0  0  0  0  0  0  0  0  0
  1  2  2  0
  2  3  1  0
  3  4  1  0
  4  5  1  0
  5  6  1  0
  6  7  1  0
  7  8  1  0
  8  9  1  0
  9 10  1  0
 10 11  2  0
 11 12  1  0
 12 13  1  0
 13 14  2  0
 14 15  1  0
 15 16  2  0
 16 17  1  0
  8 18  1  0
 18 19  1  0
  3 20  1  0
 20 21  2  0
 21  1  1  0
 19  5  1  0
 17  9  2  0
 16 12  1  0
  1 22  1  0
  2 23  1  0
  4 24  1  0
  4 25  1  0
  5 26  1  0
  6 27  1  0
  6 28  1  0
  7 29  1  0
  7 30  1  0
 10 31  1  0
 11 32  1  0
 13 33  1  0
 14 34  1  0
 18 35  1  0
 18 36  1  0
 19 37  1  0
 19 38  1  0
 20 39  1  0
M  END
>  <Energy>  (394) 
483.2384059638934

>  <compound_id>  (394) 
8694

>  <target_id>  (394) 
1

>  <reference_id>  (394) 
107

>  <inspiration_ids>  (394) 
[114, 107]

>  <energy_score>  (394) 
445.84431269961124

>  <distance_score>  (394) 
13.267822545316081

>  <path>  (394) 
/opt/xchem-fragalysis-2/maxwin/BulkDock/SCRATCH/511022/C8694-P107/C8694-P107.minimised.mol

>  <scratch_subdir>  (394) 
/opt/xchem-fragalysis-2/maxwin/BulkDock/SCRATCH/511022/C8694-P107

>  <fragmenstein_runtime>  (394) 
15.86250352859497

>  <fragmenstein_outcome>  (394) 
too moved

>  <fragmenstein_mode>  (394) 
expansion

>  <fragmenstein_error>  (394) 


$$$$
C8706-P114
     RDKit          3D

 37 39  0  0  0  0  0  0  0  0999 V2000
   -1.1135   -6.2680   23.8956 C   0  0  0  0  0  0  0  0  0  0  0  0
   -1.3830   -7.3239   22.9717 O   0  0  0  0  0  0  0  0  0  0  0  0
   -0.2610   -7.8896   22.4266 C   0  0  0  0  0  0  0  0  0  0  0  0
    0.8799   -7.5421   22.6935 O   0  0  0  0  0  0  0  0  0  0  0  0
   -0.6524   -9.0099   21.4527 C   0  0  0  0  0  0  0  0  0  0  0  0
   -0.5973   -8.2574   20.0204 C   0  0  0  0  0  0  0  0  0  0  0  0
    0.4809   -7.2949   19.4886 C   0  0  0  0  0  0  0  0  0  0  0  0
    0.9432   -6.0838   19.9859 C   0  0  0  0  0  0  0  0  0  0  0  0
    1.7823   -5.5574   19.0333 N   0  0  0  0  0  0  0  0  0  0  0  0
    1.7645   -6.4001   17.9638 C   0  0  0  0  0  0  0  0  0  0  0  0
    0.9909   -7.4384   18.1962 N   0  0  0  0  0  0  0  0  0  0  0  0
   -0.3616  -10.4530   22.1016 N   0  0  0  0  0  0  0  0  0  0  0  0
   -1.0916  -11.9507   21.8582 C   0  0  0  0  0  0  0  0  0  0  0  0
   -1.9513  -12.1696   21.0259 O   0  0  0  0  0  0  0  0  0  0  0  0
   -0.5501  -13.6151   23.2588 C   0  0  0  0  0  0  0  0  0  0  0  0
   -1.3324  -13.7414   25.1331 C   0  0  0  0  0  0  0  0  0  0  0  0
   -2.4646  -14.2887   25.7919 C   0  0  0  0  0  0  0  0  0  0  0  0
   -3.3278  -15.0692   25.1823 N   0  0  0  0  0  0  0  0  0  0  0  0
   -4.4857  -15.6692   25.5845 C   0  0  0  0  0  0  0  0  0  0  0  0
   -4.9760  -16.2001   24.4303 C   0  0  0  0  0  0  0  0  0  0  0  0
   -4.0729  -15.9649   23.4190 N   0  0  0  0  0  0  0  0  0  0  0  0
   -2.9810  -15.3330   23.9228 C   0  0  0  0  0  0  0  0  0  0  0  0
   -1.4104  -14.9335   23.2935 N   0  0  0  0  0  0  0  0  0  0  0  0
   -0.4229   -5.5322   23.4716 H   0  0  0  0  0  0  0  0  0  0  0  0
   -2.0587   -5.7628   24.1133 H   0  0  0  0  0  0  0  0  0  0  0  0
   -0.7221   -6.6823   24.8284 H   0  0  0  0  0  0  0  0  0  0  0  0
   -1.7476   -9.1021   21.5436 H   0  0  0  0  0  0  0  0  0  0  0  0
   -1.0169   -8.8613   19.2114 H   0  0  0  0  0  0  0  0  0  0  0  0
   -1.4292   -7.5325   20.1276 H   0  0  0  0  0  0  0  0  0  0  0  0
    0.7516   -5.5599   20.9112 H   0  0  0  0  0  0  0  0  0  0  0  0
    2.2902   -4.6867   19.0987 H   0  0  0  0  0  0  0  0  0  0  0  0
    2.3208   -6.2137   17.0556 H   0  0  0  0  0  0  0  0  0  0  0  0
    0.3722  -10.5581   22.7848 H   0  0  0  0  0  0  0  0  0  0  0  0
   -0.6451  -13.2576   25.7917 H   0  0  0  0  0  0  0  0  0  0  0  0
   -2.7660  -14.2956   26.8357 H   0  0  0  0  0  0  0  0  0  0  0  0
   -4.8681  -15.6104   26.5929 H   0  0  0  0  0  0  0  0  0  0  0  0
   -5.9045  -16.7251   24.2516 H   0  0  0  0  0  0  0  0  0  0  0  0
  1  2  1  0
  2  3  1  0
  3  4  2  0
  3  5  1  0
  5  6  1  0
  6  7  1  0
  7  8  2  0
  8  9  1  0
  9 10  1  0
 10 11  2  0
  5 12  1  0
 12 13  1  0
 13 14  2  0
 13 15  1  0
 15 16  1  0
 16 17  2  0
 17 18  1  0
 18 19  1  0
 19 20  2  0
 20 21  1  0
 21 22  2  0
 22 23  1  0
 11  7  1  0
 23 15  2  0
 22 18  1  0
  1 24  1  0
  1 25  1  0
  1 26  1  0
  5 27  1  0
  6 28  1  0
  6 29  1  0
  8 30  1  0
  9 31  1  0
 10 32  1  0
 12 33  1  0
 16 34  1  0
 17 35  1  0
 19 36  1  0
 20 37  1  0
M  END
>  <Energy>  (395) 
586.65739186580856

>  <compound_id>  (395) 
8706

>  <target_id>  (395) 
1

>  <reference_id>  (395) 
114

>  <inspiration_ids>  (395) 
[114, 107]

>  <energy_score>  (395) 
485.5412057906685

>  <distance_score>  (395) 
13.990531140652415

>  <path>  (395) 
/opt/xchem-fragalysis-2/maxwin/BulkDock/SCRATCH/511022/C8706-P114/C8706-P114.minimised.mol

>  <scratch_subdir>  (395) 
/opt/xchem-fragalysis-2/maxwin/BulkDock/SCRATCH/511022/C8706-P114

>  <fragmenstein_runtime>  (395) 
18.155211210250854

>  <fragmenstein_outcome>  (395) 
too moved

>  <fragmenstein_mode>  (395) 
expansion

>  <fragmenstein_error>  (395) 


$$$$
C8706-P107
     RDKit          3D

 37 39  0  0  0  0  0  0  0  0999 V2000
    4.5532  -14.3616   25.9463 C   0  0  0  0  0  0  0  0  0  0  0  0
    3.6618  -13.9237   25.0959 O   0  0  0  0  0  0  0  0  0  0  0  0
    3.7093  -14.5332   23.9863 C   0  0  0  0  0  0  0  0  0  0  0  0
    4.2836  -15.5556   23.6822 O   0  0  0  0  0  0  0  0  0  0  0  0
    2.8241  -13.6866   23.2075 C   0  0  0  0  0  0  0  0  0  0  0  0
    3.6081  -12.6210   21.9026 C   0  0  0  0  0  0  0  0  0  0  0  0
    4.9060  -12.6644   20.6058 C   0  0  0  0  0  0  0  0  0  0  0  0
    6.2231  -12.2996   20.6287 C   0  0  0  0  0  0  0  0  0  0  0  0
    6.4536  -11.4174   19.6405 N   0  0  0  0  0  0  0  0  0  0  0  0
    5.5552  -11.7691   18.7658 C   0  0  0  0  0  0  0  0  0  0  0  0
    4.6825  -12.6730   19.2587 N   0  0  0  0  0  0  0  0  0  0  0  0
    1.1767  -13.7432   24.2453 N   0  0  0  0  0  0  0  0  0  0  0  0
   -0.5163  -14.3452   23.8553 C   0  0  0  0  0  0  0  0  0  0  0  0
   -0.8030  -14.7139   22.7316 O   0  0  0  0  0  0  0  0  0  0  0  0
   -2.0694  -14.7218   25.1131 C   0  0  0  0  0  0  0  0  0  0  0  0
   -3.3579  -15.4377   24.4493 C   0  0  0  0  0  0  0  0  0  0  0  0
   -4.3715  -16.0349   25.0979 C   0  0  0  0  0  0  0  0  0  0  0  0
   -4.3636  -16.0174   26.4594 N   0  0  0  0  0  0  0  0  0  0  0  0
   -5.2229  -16.5703   27.3732 C   0  0  0  0  0  0  0  0  0  0  0  0
   -4.7013  -16.2157   28.5921 C   0  0  0  0  0  0  0  0  0  0  0  0
   -3.5599  -15.4624   28.4225 N   0  0  0  0  0  0  0  0  0  0  0  0
   -3.3550  -15.3508   27.1194 C   0  0  0  0  0  0  0  0  0  0  0  0
   -2.2928  -14.7699   26.4347 N   0  0  0  0  0  0  0  0  0  0  0  0
    5.2110  -13.4971   26.1661 H   0  0  0  0  0  0  0  0  0  0  0  0
    5.1985  -15.0397   25.4336 H   0  0  0  0  0  0  0  0  0  0  0  0
    4.0562  -14.7441   26.8400 H   0  0  0  0  0  0  0  0  0  0  0  0
    2.8401  -14.5454   22.6065 H   0  0  0  0  0  0  0  0  0  0  0  0
    3.7241  -11.6391   22.3197 H   0  0  0  0  0  0  0  0  0  0  0  0
    3.1347  -13.1138   21.0905 H   0  0  0  0  0  0  0  0  0  0  0  0
    7.0144  -12.5090   21.2920 H   0  0  0  0  0  0  0  0  0  0  0  0
    7.2728  -10.8685   19.4235 H   0  0  0  0  0  0  0  0  0  0  0  0
    5.4884  -11.2583   17.8117 H   0  0  0  0  0  0  0  0  0  0  0  0
    1.1877  -13.4008   25.2118 H   0  0  0  0  0  0  0  0  0  0  0  0
   -3.4193  -15.4571   23.4019 H   0  0  0  0  0  0  0  0  0  0  0  0
   -5.1999  -16.5179   24.5970 H   0  0  0  0  0  0  0  0  0  0  0  0
   -6.0910  -17.1453   27.0903 H   0  0  0  0  0  0  0  0  0  0  0  0
   -5.0733  -16.4560   29.5806 H   0  0  0  0  0  0  0  0  0  0  0  0
  1  2  1  0
  2  3  1  0
  3  4  2  0
  3  5  1  0
  5  6  1  0
  6  7  1  0
  7  8  2  0
  8  9  1  0
  9 10  1  0
 10 11  2  0
  5 12  1  0
 12 13  1  0
 13 14  2  0
 13 15  1  0
 15 16  1  0
 16 17  2  0
 17 18  1  0
 18 19  1  0
 19 20  2  0
 20 21  1  0
 21 22  2  0
 22 23  1  0
 11  7  1  0
 23 15  2  0
 22 18  1  0
  1 24  1  0
  1 25  1  0
  1 26  1  0
  5 27  1  0
  6 28  1  0
  6 29  1  0
  8 30  1  0
  9 31  1  0
 10 32  1  0
 12 33  1  0
 16 34  1  0
 17 35  1  0
 19 36  1  0
 20 37  1  0
M  END
>  <Energy>  (396) 
504.58811329164268

>  <compound_id>  (396) 
8706

>  <target_id>  (396) 
1

>  <reference_id>  (396) 
107

>  <inspiration_ids>  (396) 
[114, 107]

>  <energy_score>  (396) 
403.4719272165023

>  <distance_score>  (396) 
12.878465204138125

>  <path>  (396) 
/opt/xchem-fragalysis-2/maxwin/BulkDock/SCRATCH/511022/C8706-P107/C8706-P107.minimised.mol

>  <scratch_subdir>  (396) 
/opt/xchem-fragalysis-2/maxwin/BulkDock/SCRATCH/511022/C8706-P107

>  <fragmenstein_runtime>  (396) 
27.460771560668945

>  <fragmenstein_outcome>  (396) 
too moved

>  <fragmenstein_mode>  (396) 
expansion

>  <fragmenstein_error>  (396) 


$$$$
C8707-P114
     RDKit          3D

 37 39  0  0  0  0  0  0  0  0999 V2000
   -2.9085  -10.2257   17.8419 C   0  0  0  0  0  0  0  0  0  0  0  0
   -3.0678  -11.0899   18.9513 O   0  0  0  0  0  0  0  0  0  0  0  0
   -2.2448  -12.1914   19.0099 C   0  0  0  0  0  0  0  0  0  0  0  0
   -1.7338  -12.7089   18.0370 O   0  0  0  0  0  0  0  0  0  0  0  0
   -2.1887  -12.7226   20.5993 C   0  0  0  0  0  0  0  0  0  0  0  0
   -1.9631  -11.1091   21.1196 C   0  0  0  0  0  0  0  0  0  0  0  0
   -1.2441   -9.8849   20.8547 N   0  0  0  0  0  0  0  0  0  0  0  0
   -0.3927   -9.3857   21.7809 C   0  0  0  0  0  0  0  0  0  0  0  0
    0.3098   -8.3839   21.2396 C   0  0  0  0  0  0  0  0  0  0  0  0
   -0.0740   -8.2389   19.9684 N   0  0  0  0  0  0  0  0  0  0  0  0
   -1.2020   -8.9402   19.9111 C   0  0  0  0  0  0  0  0  0  0  0  0
   -2.4748  -14.5469   21.3866 N   0  0  0  0  0  0  0  0  0  0  0  0
   -3.2920  -15.1354   23.2174 C   0  0  0  0  0  0  0  0  0  0  0  0
   -3.6378  -14.3911   24.1530 O   0  0  0  0  0  0  0  0  0  0  0  0
   -3.7734  -16.8502   23.6161 C   0  0  0  0  0  0  0  0  0  0  0  0
   -3.0083  -18.1658   23.7165 C   0  0  0  0  0  0  0  0  0  0  0  0
   -3.3383  -18.9831   24.7380 C   0  0  0  0  0  0  0  0  0  0  0  0
   -4.3822  -18.6457   25.5839 N   0  0  0  0  0  0  0  0  0  0  0  0
   -4.7783  -19.1848   26.7838 C   0  0  0  0  0  0  0  0  0  0  0  0
   -5.8379  -18.4104   27.1931 C   0  0  0  0  0  0  0  0  0  0  0  0
   -6.1337  -17.4598   26.2460 N   0  0  0  0  0  0  0  0  0  0  0  0
   -5.2139  -17.5730   25.3017 C   0  0  0  0  0  0  0  0  0  0  0  0
   -4.9275  -16.7239   24.2625 N   0  0  0  0  0  0  0  0  0  0  0  0
   -1.8633  -10.1317   17.6159 H   0  0  0  0  0  0  0  0  0  0  0  0
   -3.5749  -10.4693   17.0345 H   0  0  0  0  0  0  0  0  0  0  0  0
   -3.2204   -9.2078   18.0563 H   0  0  0  0  0  0  0  0  0  0  0  0
   -3.2692  -12.5207   20.5816 H   0  0  0  0  0  0  0  0  0  0  0  0
   -1.1954  -11.4101   21.7614 H   0  0  0  0  0  0  0  0  0  0  0  0
   -2.9064  -10.7180   21.4979 H   0  0  0  0  0  0  0  0  0  0  0  0
   -0.2699   -9.8632   22.6969 H   0  0  0  0  0  0  0  0  0  0  0  0
    1.0274   -7.7834   21.7388 H   0  0  0  0  0  0  0  0  0  0  0  0
   -1.9221   -8.7573   19.1618 H   0  0  0  0  0  0  0  0  0  0  0  0
   -2.3477  -15.4420   20.6781 H   0  0  0  0  0  0  0  0  0  0  0  0
   -2.2261  -18.4303   23.0173 H   0  0  0  0  0  0  0  0  0  0  0  0
   -2.8130  -19.9077   24.9432 H   0  0  0  0  0  0  0  0  0  0  0  0
   -4.2633  -20.0161   27.2425 H   0  0  0  0  0  0  0  0  0  0  0  0
   -6.4070  -18.4823   28.1119 H   0  0  0  0  0  0  0  0  0  0  0  0
  1  2  1  0
  2  3  1  0
  3  4  2  0
  3  5  1  0
  5  6  1  0
  6  7  1  0
  7  8  1  0
  8  9  2  0
  9 10  1  0
 10 11  2  0
  5 12  1  0
 12 13  1  0
 13 14  2  0
 13 15  1  0
 15 16  1  0
 16 17  2  0
 17 18  1  0
 18 19  1  0
 19 20  2  0
 20 21  1  0
 21 22  2  0
 22 23  1  0
 11  7  1  0
 23 15  2  0
 22 18  1  0
  1 24  1  0
  1 25  1  0
  1 26  1  0
  5 27  1  0
  6 28  1  0
  6 29  1  0
  8 30  1  0
  9 31  1  0
 11 32  1  0
 12 33  1  0
 16 34  1  0
 17 35  1  0
 19 36  1  0
 20 37  1  0
M  END
>  <Energy>  (397) 
534.37028128309385

>  <compound_id>  (397) 
8707

>  <target_id>  (397) 
1

>  <reference_id>  (397) 
114

>  <inspiration_ids>  (397) 
[114, 107]

>  <energy_score>  (397) 
435.1932471835987

>  <distance_score>  (397) 
12.694241793803943

>  <path>  (397) 
/opt/xchem-fragalysis-2/maxwin/BulkDock/SCRATCH/511022/C8707-P114/C8707-P114.minimised.mol

>  <scratch_subdir>  (397) 
/opt/xchem-fragalysis-2/maxwin/BulkDock/SCRATCH/511022/C8707-P114

>  <fragmenstein_runtime>  (397) 
44.81256675720215

>  <fragmenstein_outcome>  (397) 
too moved

>  <fragmenstein_mode>  (397) 
expansion

>  <fragmenstein_error>  (397) 


$$$$
C8707-P107
     RDKit          3D

 37 39  0  0  0  0  0  0  0  0999 V2000
   -5.0063  -15.6987   12.0951 C   0  0  0  0  0  0  0  0  0  0  0  0
   -3.9794  -16.4421   12.7557 O   0  0  0  0  0  0  0  0  0  0  0  0
   -3.8698  -16.1824   14.0868 C   0  0  0  0  0  0  0  0  0  0  0  0
   -4.5232  -15.3453   14.6955 O   0  0  0  0  0  0  0  0  0  0  0  0
   -2.8000  -17.0488   14.7206 C   0  0  0  0  0  0  0  0  0  0  0  0
   -1.4572  -16.2326   14.8094 C   0  0  0  0  0  0  0  0  0  0  0  0
   -0.6172  -15.5657   13.8045 N   0  0  0  0  0  0  0  0  0  0  0  0
   -0.9479  -14.7719   12.7421 C   0  0  0  0  0  0  0  0  0  0  0  0
    0.2195  -14.1379   12.3498 C   0  0  0  0  0  0  0  0  0  0  0  0
    1.2793  -14.5537   13.1005 N   0  0  0  0  0  0  0  0  0  0  0  0
    0.7524  -15.3846   13.9735 C   0  0  0  0  0  0  0  0  0  0  0  0
   -3.3660  -17.5599   16.0861 N   0  0  0  0  0  0  0  0  0  0  0  0
   -3.9662  -18.8392   16.4536 C   0  0  0  0  0  0  0  0  0  0  0  0
   -4.1033  -19.8488   15.8185 O   0  0  0  0  0  0  0  0  0  0  0  0
   -4.5205  -19.0247   17.9620 C   0  0  0  0  0  0  0  0  0  0  0  0
   -4.1515  -20.3677   18.5865 C   0  0  0  0  0  0  0  0  0  0  0  0
   -4.7310  -20.7001   19.7524 C   0  0  0  0  0  0  0  0  0  0  0  0
   -5.5995  -19.8073   20.3507 N   0  0  0  0  0  0  0  0  0  0  0  0
   -6.3192  -19.9292   21.5149 C   0  0  0  0  0  0  0  0  0  0  0  0
   -6.9948  -18.7423   21.6427 C   0  0  0  0  0  0  0  0  0  0  0  0
   -6.7059  -17.9042   20.5873 N   0  0  0  0  0  0  0  0  0  0  0  0
   -5.8743  -18.5582   19.7853 C   0  0  0  0  0  0  0  0  0  0  0  0
   -5.3231  -18.1707   18.5594 N   0  0  0  0  0  0  0  0  0  0  0  0
   -5.0230  -16.0037   11.0452 H   0  0  0  0  0  0  0  0  0  0  0  0
   -5.9833  -15.9184   12.5368 H   0  0  0  0  0  0  0  0  0  0  0  0
   -4.7907  -14.6267   12.1423 H   0  0  0  0  0  0  0  0  0  0  0  0
   -2.6595  -17.9480   14.1102 H   0  0  0  0  0  0  0  0  0  0  0  0
   -1.6471  -15.4286   15.5276 H   0  0  0  0  0  0  0  0  0  0  0  0
   -0.7616  -16.9799   15.2040 H   0  0  0  0  0  0  0  0  0  0  0  0
   -1.9534  -14.7008   12.3605 H   0  0  0  0  0  0  0  0  0  0  0  0
    0.3457  -13.4181   11.5510 H   0  0  0  0  0  0  0  0  0  0  0  0
    1.2935  -15.8653   14.7768 H   0  0  0  0  0  0  0  0  0  0  0  0
   -3.4987  -16.8993   16.8490 H   0  0  0  0  0  0  0  0  0  0  0  0
   -3.4763  -21.0199   18.0468 H   0  0  0  0  0  0  0  0  0  0  0  0
   -4.5548  -21.6440   20.2521 H   0  0  0  0  0  0  0  0  0  0  0  0
   -6.2875  -20.8253   22.1157 H   0  0  0  0  0  0  0  0  0  0  0  0
   -7.6771  -18.4398   22.4257 H   0  0  0  0  0  0  0  0  0  0  0  0
  1  2  1  0
  2  3  1  0
  3  4  2  0
  3  5  1  0
  5  6  1  0
  6  7  1  0
  7  8  1  0
  8  9  2  0
  9 10  1  0
 10 11  2  0
  5 12  1  0
 12 13  1  0
 13 14  2  0
 13 15  1  0
 15 16  1  0
 16 17  2  0
 17 18  1  0
 18 19  1  0
 19 20  2  0
 20 21  1  0
 21 22  2  0
 22 23  1  0
 11  7  1  0
 23 15  2  0
 22 18  1  0
  1 24  1  0
  1 25  1  0
  1 26  1  0
  5 27  1  0
  6 28  1  0
  6 29  1  0
  8 30  1  0
  9 31  1  0
 11 32  1  0
 12 33  1  0
 16 34  1  0
 17 35  1  0
 19 36  1  0
 20 37  1  0
M  END
>  <Energy>  (398) 
98.878918097908496

>  <compound_id>  (398) 
8707

>  <target_id>  (398) 
1

>  <reference_id>  (398) 
107

>  <inspiration_ids>  (398) 
[114, 107]

>  <energy_score>  (398) 
-0.29811600158302554

>  <distance_score>  (398) 
15.2011542612342

>  <path>  (398) 
/opt/xchem-fragalysis-2/maxwin/BulkDock/SCRATCH/511022/C8707-P107/C8707-P107.minimised.mol

>  <scratch_subdir>  (398) 
/opt/xchem-fragalysis-2/maxwin/BulkDock/SCRATCH/511022/C8707-P107

>  <fragmenstein_runtime>  (398) 
38.1077299118042

>  <fragmenstein_outcome>  (398) 
too moved

>  <fragmenstein_mode>  (398) 
expansion

>  <fragmenstein_error>  (398) 


$$$$
C8664-P114
     RDKit          3D

 35 37  0  0  0  0  0  0  0  0999 V2000
   -2.4741  -18.3113   20.2284 C   0  0  0  0  0  0  0  0  0  0  0  0
   -2.0716  -17.3070   21.2972 C   0  0  0  0  0  0  0  0  0  0  0  0
   -2.9032  -16.1186   21.3002 N   0  0  0  0  0  0  0  0  0  0  0  0
   -2.9215  -15.2071   20.2699 C   0  0  0  0  0  0  0  0  0  0  0  0
   -3.8272  -14.2818   20.4590 N   0  0  0  0  0  0  0  0  0  0  0  0
   -4.4672  -14.6547   21.6177 C   0  0  0  0  0  0  0  0  0  0  0  0
   -3.8717  -15.7518   22.2271 C   0  0  0  0  0  0  0  0  0  0  0  0
   -4.1383  -16.3824   23.6116 C   0  0  0  0  0  0  0  0  0  0  0  0
   -5.3598  -17.2361   23.8679 N   0  0  0  0  0  0  0  0  0  0  0  0
   -5.7753  -18.0086   22.6896 C   0  0  0  0  0  0  0  0  0  0  0  0
   -6.3392  -16.8589   24.8336 C   0  0  0  0  0  0  0  0  0  0  0  0
   -7.4619  -16.1962   24.4891 C   0  0  0  0  0  0  0  0  0  0  0  0
   -8.4556  -15.9251   25.5618 C   0  0  0  0  0  0  0  0  0  0  0  0
   -8.3750  -16.2809   26.8023 N   0  0  0  0  0  0  0  0  0  0  0  0
   -7.2486  -16.9681   27.1460 C   0  0  0  0  0  0  0  0  0  0  0  0
   -6.9670  -17.5101   28.3103 N   0  0  0  0  0  0  0  0  0  0  0  0
   -5.7575  -18.1268   28.1575 C   0  0  0  0  0  0  0  0  0  0  0  0
   -5.3044  -18.0113   26.8637 C   0  0  0  0  0  0  0  0  0  0  0  0
   -6.2432  -17.2545   26.2011 N   0  0  0  0  0  0  0  0  0  0  0  0
   -3.5179  -18.6187   20.3452 H   0  0  0  0  0  0  0  0  0  0  0  0
   -2.3613  -17.8916   19.2234 H   0  0  0  0  0  0  0  0  0  0  0  0
   -1.8438  -19.2037   20.2926 H   0  0  0  0  0  0  0  0  0  0  0  0
   -1.0413  -16.9774   21.1360 H   0  0  0  0  0  0  0  0  0  0  0  0
   -2.1281  -17.7809   22.2783 H   0  0  0  0  0  0  0  0  0  0  0  0
   -2.2793  -15.2902   19.4033 H   0  0  0  0  0  0  0  0  0  0  0  0
   -5.2957  -14.0715   22.0012 H   0  0  0  0  0  0  0  0  0  0  0  0
   -4.1509  -15.5517   24.3309 H   0  0  0  0  0  0  0  0  0  0  0  0
   -3.2717  -16.9877   23.8982 H   0  0  0  0  0  0  0  0  0  0  0  0
   -4.9404  -18.6108   22.3195 H   0  0  0  0  0  0  0  0  0  0  0  0
   -6.5895  -18.6966   22.9374 H   0  0  0  0  0  0  0  0  0  0  0  0
   -6.1309  -17.3524   21.8886 H   0  0  0  0  0  0  0  0  0  0  0  0
   -7.6791  -15.8590   23.4858 H   0  0  0  0  0  0  0  0  0  0  0  0
   -9.3458  -15.3629   25.2332 H   0  0  0  0  0  0  0  0  0  0  0  0
   -5.2780  -18.6256   28.9916 H   0  0  0  0  0  0  0  0  0  0  0  0
   -4.4184  -18.3759   26.3665 H   0  0  0  0  0  0  0  0  0  0  0  0
  1  2  1  0
  2  3  1  0
  3  4  1  0
  4  5  2  0
  5  6  1  0
  6  7  2  0
  7  8  1  0
  8  9  1  0
  9 10  1  0
  9 11  1  0
 11 12  2  0
 12 13  1  0
 13 14  2  0
 14 15  1  0
 15 16  2  0
 16 17  1  0
 17 18  2  0
 18 19  1  0
  7  3  1  0
 19 11  1  0
 19 15  1  0
  1 20  1  0
  1 21  1  0
  1 22  1  0
  2 23  1  0
  2 24  1  0
  4 25  1  0
  6 26  1  0
  8 27  1  0
  8 28  1  0
 10 29  1  0
 10 30  1  0
 10 31  1  0
 12 32  1  0
 13 33  1  0
 17 34  1  0
 18 35  1  0
M  END
>  <Energy>  (399) 
49.510667248251394

>  <compound_id>  (399) 
8664

>  <target_id>  (399) 
1

>  <reference_id>  (399) 
114

>  <inspiration_ids>  (399) 
[114, 107]

>  <energy_score>  (399) 
-26.962589210947044

>  <distance_score>  (399) 
15.141515185210828

>  <path>  (399) 
/opt/xchem-fragalysis-2/maxwin/BulkDock/SCRATCH/511022/C8664-P114/C8664-P114.minimised.mol

>  <scratch_subdir>  (399) 
/opt/xchem-fragalysis-2/maxwin/BulkDock/SCRATCH/511022/C8664-P114

>  <fragmenstein_runtime>  (399) 
40.609989643096924

>  <fragmenstein_outcome>  (399) 
too moved

>  <fragmenstein_mode>  (399) 
expansion

>  <fragmenstein_error>  (399) 


$$$$
C8664-P107
     RDKit          3D

 35 37  0  0  0  0  0  0  0  0999 V2000
    5.5710  -13.7291   19.3295 C   0  0  0  0  0  0  0  0  0  0  0  0
    4.4331  -14.9267   18.4076 C   0  0  0  0  0  0  0  0  0  0  0  0
    3.0012  -14.5901   18.5655 N   0  0  0  0  0  0  0  0  0  0  0  0
    3.6325  -13.2852   18.6607 C   0  0  0  0  0  0  0  0  0  0  0  0
    3.8203  -12.9968   20.0379 N   0  0  0  0  0  0  0  0  0  0  0  0
    2.9097  -13.9196   20.7713 C   0  0  0  0  0  0  0  0  0  0  0  0
    2.1818  -15.0019   19.9625 C   0  0  0  0  0  0  0  0  0  0  0  0
    0.5700  -16.3066   20.0967 C   0  0  0  0  0  0  0  0  0  0  0  0
   -1.1302  -16.4537   20.7407 N   0  0  0  0  0  0  0  0  0  0  0  0
   -2.1495  -16.0170   19.7294 C   0  0  0  0  0  0  0  0  0  0  0  0
   -1.6836  -17.6660   21.4664 C   0  0  0  0  0  0  0  0  0  0  0  0
   -1.3039  -18.9382   21.2164 C   0  0  0  0  0  0  0  0  0  0  0  0
   -2.0094  -20.0485   21.9344 C   0  0  0  0  0  0  0  0  0  0  0  0
   -2.9872  -19.9501   22.7759 N   0  0  0  0  0  0  0  0  0  0  0  0
   -3.3982  -18.6829   23.0435 C   0  0  0  0  0  0  0  0  0  0  0  0
   -4.3647  -18.3156   23.8678 N   0  0  0  0  0  0  0  0  0  0  0  0
   -4.4026  -16.9558   23.8114 C   0  0  0  0  0  0  0  0  0  0  0  0
   -3.4684  -16.4780   22.9225 C   0  0  0  0  0  0  0  0  0  0  0  0
   -2.7900  -17.5670   22.4180 N   0  0  0  0  0  0  0  0  0  0  0  0
    6.3311  -14.3275   19.4108 H   0  0  0  0  0  0  0  0  0  0  0  0
    5.5227  -13.5145   20.4087 H   0  0  0  0  0  0  0  0  0  0  0  0
    5.7298  -12.6747   19.0473 H   0  0  0  0  0  0  0  0  0  0  0  0
    4.7084  -15.9075   18.7694 H   0  0  0  0  0  0  0  0  0  0  0  0
    4.4431  -15.0105   17.3542 H   0  0  0  0  0  0  0  0  0  0  0  0
    3.6785  -12.4966   17.9147 H   0  0  0  0  0  0  0  0  0  0  0  0
    3.1426  -14.0645   21.8202 H   0  0  0  0  0  0  0  0  0  0  0  0
    0.6045  -17.1165   19.3223 H   0  0  0  0  0  0  0  0  0  0  0  0
    0.7362  -17.0990   20.7557 H   0  0  0  0  0  0  0  0  0  0  0  0
   -3.0998  -15.7863   20.2206 H   0  0  0  0  0  0  0  0  0  0  0  0
   -2.3309  -16.8256   19.0128 H   0  0  0  0  0  0  0  0  0  0  0  0
   -1.8807  -15.1233   19.1738 H   0  0  0  0  0  0  0  0  0  0  0  0
   -0.5383  -19.2083   20.5037 H   0  0  0  0  0  0  0  0  0  0  0  0
   -1.6331  -21.0563   21.6888 H   0  0  0  0  0  0  0  0  0  0  0  0
   -5.1040  -16.3858   24.4062 H   0  0  0  0  0  0  0  0  0  0  0  0
   -3.2117  -15.4844   22.6056 H   0  0  0  0  0  0  0  0  0  0  0  0
  1  2  1  0
  2  3  1  0
  3  4  1  0
  4  5  2  0
  5  6  1  0
  6  7  2  0
  7  8  1  0
  8  9  1  0
  9 10  1  0
  9 11  1  0
 11 12  2  0
 12 13  1  0
 13 14  2  0
 14 15  1  0
 15 16  2  0
 16 17  1  0
 17 18  2  0
 18 19  1  0
  7  3  1  0
 19 11  1  0
 19 15  1  0
  1 20  1  0
  1 21  1  0
  1 22  1  0
  2 23  1  0
  2 24  1  0
  4 25  1  0
  6 26  1  0
  8 27  1  0
  8 28  1  0
 10 29  1  0
 10 30  1  0
 10 31  1  0
 12 32  1  0
 13 33  1  0
 17 34  1  0
 18 35  1  0
M  END
>  <Energy>  (400) 
484.73668589562772

>  <compound_id>  (400) 
8664

>  <target_id>  (400) 
1

>  <reference_id>  (400) 
107

>  <inspiration_ids>  (400) 
[114, 107]

>  <energy_score>  (400) 
408.263429436425

>  <distance_score>  (400) 
14.445930511728282

>  <path>  (400) 
/opt/xchem-fragalysis-2/maxwin/BulkDock/SCRATCH/511022/C8664-P107/C8664-P107.minimised.mol

>  <scratch_subdir>  (400) 
/opt/xchem-fragalysis-2/maxwin/BulkDock/SCRATCH/511022/C8664-P107

>  <fragmenstein_runtime>  (400) 
29.761128664016724

>  <fragmenstein_outcome>  (400) 
too moved

>  <fragmenstein_mode>  (400) 
expansion

>  <fragmenstein_error>  (400) 


$$$$
C8665-P114
     RDKit          3D

 33 36  0  0  0  0  0  0  0  0999 V2000
    4.5073  -12.7610   20.6042 C   0  0  0  0  0  0  0  0  0  0  0  0
    5.2573  -11.7532   21.0264 C   0  0  0  0  0  0  0  0  0  0  0  0
    4.5104  -11.2744   22.3155 N   0  0  0  0  0  0  0  0  0  0  0  0
    3.6063  -12.5093   22.9229 C   0  0  0  0  0  0  0  0  0  0  0  0
    3.5009  -13.6458   24.6342 C   0  0  0  0  0  0  0  0  0  0  0  0
    2.8185  -14.2170   23.5382 C   0  0  0  0  0  0  0  0  0  0  0  0
    3.6791  -15.3593   23.5016 C   0  0  0  0  0  0  0  0  0  0  0  0
    4.7225  -15.6350   24.4149 C   0  0  0  0  0  0  0  0  0  0  0  0
    4.1490  -15.1932   25.7003 N   0  0  0  0  0  0  0  0  0  0  0  0
    3.4733  -16.7420   26.6273 C   0  0  0  0  0  0  0  0  0  0  0  0
    3.0790  -17.9620   25.9202 C   0  0  0  0  0  0  0  0  0  0  0  0
    2.2568  -19.1018   26.4386 C   0  0  0  0  0  0  0  0  0  0  0  0
    1.4940  -19.0541   27.4693 N   0  0  0  0  0  0  0  0  0  0  0  0
    1.6749  -17.9465   28.2295 C   0  0  0  0  0  0  0  0  0  0  0  0
    1.0595  -17.7262   29.3755 N   0  0  0  0  0  0  0  0  0  0  0  0
    2.0065  -17.1095   30.1110 C   0  0  0  0  0  0  0  0  0  0  0  0
    3.1061  -16.8123   29.3301 C   0  0  0  0  0  0  0  0  0  0  0  0
    2.7401  -16.9623   28.0061 N   0  0  0  0  0  0  0  0  0  0  0  0
    3.5330  -13.0278   21.6022 N   0  0  0  0  0  0  0  0  0  0  0  0
    4.5313  -13.2110   19.6237 H   0  0  0  0  0  0  0  0  0  0  0  0
    6.1074  -11.2909   20.5964 H   0  0  0  0  0  0  0  0  0  0  0  0
    5.0643  -10.6577   22.8953 H   0  0  0  0  0  0  0  0  0  0  0  0
    4.3751  -13.2955   25.1269 H   0  0  0  0  0  0  0  0  0  0  0  0
    1.8554  -14.7014   23.4010 H   0  0  0  0  0  0  0  0  0  0  0  0
    2.1242  -13.4507   23.9960 H   0  0  0  0  0  0  0  0  0  0  0  0
    3.7436  -15.1411   22.5333 H   0  0  0  0  0  0  0  0  0  0  0  0
    3.3808  -16.3666   23.3813 H   0  0  0  0  0  0  0  0  0  0  0  0
    5.7054  -15.9856   24.2561 H   0  0  0  0  0  0  0  0  0  0  0  0
    4.5556  -16.6844   24.3698 H   0  0  0  0  0  0  0  0  0  0  0  0
    3.2379  -18.1482   24.8722 H   0  0  0  0  0  0  0  0  0  0  0  0
    2.2412  -19.9932   25.7882 H   0  0  0  0  0  0  0  0  0  0  0  0
    1.8961  -16.9653   31.1775 H   0  0  0  0  0  0  0  0  0  0  0  0
    4.0839  -16.4807   29.6108 H   0  0  0  0  0  0  0  0  0  0  0  0
  1  2  2  0
  2  3  1  0
  3  4  1  0
  4  5  1  0
  5  6  1  0
  6  7  1  0
  7  8  1  0
  8  9  1  0
  9 10  1  0
 10 11  2  0
 11 12  1  0
 12 13  2  0
 13 14  1  0
 14 15  2  0
 15 16  1  0
 16 17  2  0
 17 18  1  0
  4 19  2  0
 19  1  1  0
  9  5  1  0
 18 10  1  0
 18 14  1  0
  1 20  1  0
  2 21  1  0
  3 22  1  0
  5 23  1  0
  6 24  1  0
  6 25  1  0
  7 26  1  0
  7 27  1  0
  8 28  1  0
  8 29  1  0
 11 30  1  0
 12 31  1  0
 16 32  1  0
 17 33  1  0
M  END
>  <Energy>  (401) 
742.57152329220378

>  <compound_id>  (401) 
8665

>  <target_id>  (401) 
1

>  <reference_id>  (401) 
114

>  <inspiration_ids>  (401) 
[114, 107]

>  <energy_score>  (401) 
640.6183377217541

>  <distance_score>  (401) 
15.305111249283115

>  <path>  (401) 
/opt/xchem-fragalysis-2/maxwin/BulkDock/SCRATCH/511022/C8665-P114/C8665-P114.minimised.mol

>  <scratch_subdir>  (401) 
/opt/xchem-fragalysis-2/maxwin/BulkDock/SCRATCH/511022/C8665-P114

>  <fragmenstein_runtime>  (401) 
13.097372770309448

>  <fragmenstein_outcome>  (401) 
too moved

>  <fragmenstein_mode>  (401) 
expansion

>  <fragmenstein_error>  (401) 


$$$$
C8665-P107
     RDKit          3D

 33 36  0  0  0  0  0  0  0  0999 V2000
   -0.4407  -14.1897   24.5821 C   0  0  0  0  0  0  0  0  0  0  0  0
    0.9095  -13.6544   25.5742 C   0  0  0  0  0  0  0  0  0  0  0  0
    0.6776  -14.1251   26.8316 N   0  0  0  0  0  0  0  0  0  0  0  0
   -1.2180  -14.4608   27.0403 C   0  0  0  0  0  0  0  0  0  0  0  0
   -2.2577  -15.6347   27.7569 C   0  0  0  0  0  0  0  0  0  0  0  0
   -3.4349  -15.7246   26.6663 C   0  0  0  0  0  0  0  0  0  0  0  0
   -4.3865  -14.5995   27.1096 C   0  0  0  0  0  0  0  0  0  0  0  0
   -4.0457  -14.3686   28.5907 C   0  0  0  0  0  0  0  0  0  0  0  0
   -3.2372  -15.5530   28.9770 N   0  0  0  0  0  0  0  0  0  0  0  0
   -3.9806  -16.8513   29.2083 C   0  0  0  0  0  0  0  0  0  0  0  0
   -3.2985  -18.0206   29.2320 C   0  0  0  0  0  0  0  0  0  0  0  0
   -4.0098  -19.2166   28.6937 C   0  0  0  0  0  0  0  0  0  0  0  0
   -5.1991  -19.2449   28.1835 N   0  0  0  0  0  0  0  0  0  0  0  0
   -5.9511  -18.1362   28.4149 C   0  0  0  0  0  0  0  0  0  0  0  0
   -7.2112  -17.9341   28.0818 N   0  0  0  0  0  0  0  0  0  0  0  0
   -7.5394  -16.7241   28.6104 C   0  0  0  0  0  0  0  0  0  0  0  0
   -6.4749  -16.1787   29.2823 C   0  0  0  0  0  0  0  0  0  0  0  0
   -5.3990  -16.9952   29.0172 N   0  0  0  0  0  0  0  0  0  0  0  0
   -1.6605  -14.0837   25.6335 N   0  0  0  0  0  0  0  0  0  0  0  0
   -0.4862  -14.1307   23.5134 H   0  0  0  0  0  0  0  0  0  0  0  0
    1.7901  -13.1749   25.1796 H   0  0  0  0  0  0  0  0  0  0  0  0
    1.2305  -14.8547   27.2451 H   0  0  0  0  0  0  0  0  0  0  0  0
   -1.7011  -16.5694   27.8399 H   0  0  0  0  0  0  0  0  0  0  0  0
   -3.9405  -16.6941   26.7169 H   0  0  0  0  0  0  0  0  0  0  0  0
   -3.1700  -15.6438   25.6110 H   0  0  0  0  0  0  0  0  0  0  0  0
   -5.4281  -14.8986   26.9622 H   0  0  0  0  0  0  0  0  0  0  0  0
   -4.2363  -13.6809   26.5335 H   0  0  0  0  0  0  0  0  0  0  0  0
   -4.9093  -14.1826   29.2235 H   0  0  0  0  0  0  0  0  0  0  0  0
   -3.4358  -13.4710   28.7196 H   0  0  0  0  0  0  0  0  0  0  0  0
   -2.2248  -18.0926   29.3271 H   0  0  0  0  0  0  0  0  0  0  0  0
   -3.3901  -20.1270   28.6313 H   0  0  0  0  0  0  0  0  0  0  0  0
   -8.5386  -16.3214   28.5134 H   0  0  0  0  0  0  0  0  0  0  0  0
   -6.3986  -15.2962   29.8946 H   0  0  0  0  0  0  0  0  0  0  0  0
  1  2  2  0
  2  3  1  0
  3  4  1  0
  4  5  1  0
  5  6  1  0
  6  7  1  0
  7  8  1  0
  8  9  1  0
  9 10  1  0
 10 11  2  0
 11 12  1  0
 12 13  2  0
 13 14  1  0
 14 15  2  0
 15 16  1  0
 16 17  2  0
 17 18  1  0
  4 19  2  0
 19  1  1  0
  9  5  1  0
 18 10  1  0
 18 14  1  0
  1 20  1  0
  2 21  1  0
  3 22  1  0
  5 23  1  0
  6 24  1  0
  6 25  1  0
  7 26  1  0
  7 27  1  0
  8 28  1  0
  8 29  1  0
 11 30  1  0
 12 31  1  0
 16 32  1  0
 17 33  1  0
M  END
>  <Energy>  (402) 
330.84072795877597

>  <compound_id>  (402) 
8665

>  <target_id>  (402) 
1

>  <reference_id>  (402) 
107

>  <inspiration_ids>  (402) 
[114, 107]

>  <energy_score>  (402) 
228.88754238833258

>  <distance_score>  (402) 
14.25614274749078

>  <path>  (402) 
/opt/xchem-fragalysis-2/maxwin/BulkDock/SCRATCH/511022/C8665-P107/C8665-P107.minimised.mol

>  <scratch_subdir>  (402) 
/opt/xchem-fragalysis-2/maxwin/BulkDock/SCRATCH/511022/C8665-P107

>  <fragmenstein_runtime>  (402) 
15.515026092529297

>  <fragmenstein_outcome>  (402) 
too moved

>  <fragmenstein_mode>  (402) 
expansion

>  <fragmenstein_error>  (402) 


$$$$
C8666-P114
     RDKit          3D

 36 39  0  0  0  0  0  0  0  0999 V2000
    5.9632  -11.1341   23.6912 C   0  0  0  0  0  0  0  0  0  0  0  0
    5.4484  -12.0031   24.6650 C   0  0  0  0  0  0  0  0  0  0  0  0
    3.7517  -12.6890   23.9872 N   0  0  0  0  0  0  0  0  0  0  0  0
    2.0486  -12.4631   24.7037 C   0  0  0  0  0  0  0  0  0  0  0  0
    0.6765  -13.4897   25.7635 C   0  0  0  0  0  0  0  0  0  0  0  0
    0.6262  -14.2988   24.2883 C   0  0  0  0  0  0  0  0  0  0  0  0
   -0.5935  -14.2519   23.5361 C   0  0  0  0  0  0  0  0  0  0  0  0
   -1.5027  -14.7882   24.6093 C   0  0  0  0  0  0  0  0  0  0  0  0
   -1.3748  -13.8056   25.8174 N   0  0  0  0  0  0  0  0  0  0  0  0
   -2.3424  -14.7761   27.0510 C   0  0  0  0  0  0  0  0  0  0  0  0
   -2.9085  -16.0218   26.7804 C   0  0  0  0  0  0  0  0  0  0  0  0
   -3.5434  -16.9483   27.7475 C   0  0  0  0  0  0  0  0  0  0  0  0
   -3.8904  -16.6582   28.9410 N   0  0  0  0  0  0  0  0  0  0  0  0
   -3.7510  -15.3485   29.2423 C   0  0  0  0  0  0  0  0  0  0  0  0
   -4.3097  -14.7839   30.2913 N   0  0  0  0  0  0  0  0  0  0  0  0
   -4.2388  -13.4572   30.0737 C   0  0  0  0  0  0  0  0  0  0  0  0
   -3.5782  -13.1901   28.9011 C   0  0  0  0  0  0  0  0  0  0  0  0
   -3.0743  -14.3904   28.3874 N   0  0  0  0  0  0  0  0  0  0  0  0
    3.8614  -11.9328   22.5467 C   0  0  0  0  0  0  0  0  0  0  0  0
    4.8892  -10.9899   22.5359 N   0  0  0  0  0  0  0  0  0  0  0  0
    6.9017  -10.6165   23.7208 H   0  0  0  0  0  0  0  0  0  0  0  0
    5.7137  -12.5060   25.6050 H   0  0  0  0  0  0  0  0  0  0  0  0
    1.7775  -12.0456   23.7455 H   0  0  0  0  0  0  0  0  0  0  0  0
    2.6156  -13.3655   24.9157 H   0  0  0  0  0  0  0  0  0  0  0  0
    1.1853  -13.9106   26.6572 H   0  0  0  0  0  0  0  0  0  0  0  0
    1.3750  -14.8077   23.5980 H   0  0  0  0  0  0  0  0  0  0  0  0
    1.4124  -13.8188   23.8956 H   0  0  0  0  0  0  0  0  0  0  0  0
   -0.7709  -14.8121   22.5993 H   0  0  0  0  0  0  0  0  0  0  0  0
   -0.3239  -13.3672   23.0192 H   0  0  0  0  0  0  0  0  0  0  0  0
   -1.4197  -15.8041   24.5979 H   0  0  0  0  0  0  0  0  0  0  0  0
   -2.5433  -15.0650   24.3511 H   0  0  0  0  0  0  0  0  0  0  0  0
   -2.8609  -16.5215   25.8387 H   0  0  0  0  0  0  0  0  0  0  0  0
   -3.6720  -17.9840   27.3901 H   0  0  0  0  0  0  0  0  0  0  0  0
   -4.7096  -12.7487   30.7427 H   0  0  0  0  0  0  0  0  0  0  0  0
   -3.4790  -12.2472   28.3883 H   0  0  0  0  0  0  0  0  0  0  0  0
    3.5373  -12.5845   21.7521 H   0  0  0  0  0  0  0  0  0  0  0  0
  1  2  2  0
  2  3  1  0
  3  4  1  0
  4  5  1  0
  5  6  1  0
  6  7  1  0
  7  8  1  0
  8  9  1  0
  9 10  1  0
 10 11  2  0
 11 12  1  0
 12 13  2  0
 13 14  1  0
 14 15  2  0
 15 16  1  0
 16 17  2  0
 17 18  1  0
  3 19  1  0
 19 20  2  0
 20  1  1  0
  9  5  1  0
 18 10  1  0
 18 14  1  0
  1 21  1  0
  2 22  1  0
  4 23  1  0
  4 24  1  0
  5 25  1  0
  6 26  1  0
  6 27  1  0
  7 28  1  0
  7 29  1  0
  8 30  1  0
  8 31  1  0
 11 32  1  0
 12 33  1  0
 16 34  1  0
 17 35  1  0
 19 36  1  0
M  END
>  <Energy>  (403) 
785.3193998408176

>  <compound_id>  (403) 
8666

>  <target_id>  (403) 
1

>  <reference_id>  (403) 
114

>  <inspiration_ids>  (403) 
[114, 107]

>  <energy_score>  (403) 
683.3693116353506

>  <distance_score>  (403) 
13.172306742118046

>  <path>  (403) 
/opt/xchem-fragalysis-2/maxwin/BulkDock/SCRATCH/511022/C8666-P114/C8666-P114.minimised.mol

>  <scratch_subdir>  (403) 
/opt/xchem-fragalysis-2/maxwin/BulkDock/SCRATCH/511022/C8666-P114

>  <fragmenstein_runtime>  (403) 
22.735681772232056

>  <fragmenstein_outcome>  (403) 
too moved

>  <fragmenstein_mode>  (403) 
expansion

>  <fragmenstein_error>  (403) 


$$$$
C8666-P107
     RDKit          3D

 36 39  0  0  0  0  0  0  0  0999 V2000
    5.4359  -12.2955   19.8593 C   0  0  0  0  0  0  0  0  0  0  0  0
    4.4543  -13.1242   19.4551 C   0  0  0  0  0  0  0  0  0  0  0  0
    3.5351  -13.3096   20.5695 N   0  0  0  0  0  0  0  0  0  0  0  0
    2.2669  -14.6222   20.3999 C   0  0  0  0  0  0  0  0  0  0  0  0
    0.7028  -15.7838   20.9606 C   0  0  0  0  0  0  0  0  0  0  0  0
   -0.3242  -16.4130   19.9618 C   0  0  0  0  0  0  0  0  0  0  0  0
   -1.2781  -17.5147   20.1701 C   0  0  0  0  0  0  0  0  0  0  0  0
   -0.6163  -17.6248   21.4462 C   0  0  0  0  0  0  0  0  0  0  0  0
   -0.5394  -15.7953   22.1908 N   0  0  0  0  0  0  0  0  0  0  0  0
   -1.5114  -15.4829   23.9344 C   0  0  0  0  0  0  0  0  0  0  0  0
   -1.6989  -14.6045   25.0766 C   0  0  0  0  0  0  0  0  0  0  0  0
   -2.2767  -14.8322   26.6770 C   0  0  0  0  0  0  0  0  0  0  0  0
   -3.1660  -15.5710   27.1964 N   0  0  0  0  0  0  0  0  0  0  0  0
   -3.4391  -16.4585   26.2681 C   0  0  0  0  0  0  0  0  0  0  0  0
   -4.1205  -17.5648   26.5302 N   0  0  0  0  0  0  0  0  0  0  0  0
   -3.1547  -18.5034   26.5697 C   0  0  0  0  0  0  0  0  0  0  0  0
   -2.0735  -18.0471   25.8482 C   0  0  0  0  0  0  0  0  0  0  0  0
   -2.4722  -16.6539   25.0312 N   0  0  0  0  0  0  0  0  0  0  0  0
    3.9947  -12.4544   21.4707 C   0  0  0  0  0  0  0  0  0  0  0  0
    5.0741  -11.7850   21.0287 N   0  0  0  0  0  0  0  0  0  0  0  0
    6.1749  -11.7682   19.3171 H   0  0  0  0  0  0  0  0  0  0  0  0
    4.1400  -13.6887   18.5970 H   0  0  0  0  0  0  0  0  0  0  0  0
    2.8022  -14.6887   21.3267 H   0  0  0  0  0  0  0  0  0  0  0  0
    2.5391  -14.8513   19.3483 H   0  0  0  0  0  0  0  0  0  0  0  0
    1.0706  -16.7268   20.8191 H   0  0  0  0  0  0  0  0  0  0  0  0
   -1.0313  -15.6843   19.5143 H   0  0  0  0  0  0  0  0  0  0  0  0
    0.4171  -17.0644   19.4314 H   0  0  0  0  0  0  0  0  0  0  0  0
   -1.1449  -18.3836   19.5161 H   0  0  0  0  0  0  0  0  0  0  0  0
   -2.3263  -17.2098   20.1253 H   0  0  0  0  0  0  0  0  0  0  0  0
    0.3323  -18.1269   21.2700 H   0  0  0  0  0  0  0  0  0  0  0  0
   -0.9854  -18.5228   21.9721 H   0  0  0  0  0  0  0  0  0  0  0  0
   -1.2726  -13.6334   25.2188 H   0  0  0  0  0  0  0  0  0  0  0  0
   -1.5710  -14.5308   27.4603 H   0  0  0  0  0  0  0  0  0  0  0  0
   -3.2616  -19.4243   27.1279 H   0  0  0  0  0  0  0  0  0  0  0  0
   -1.0503  -18.3803   25.8435 H   0  0  0  0  0  0  0  0  0  0  0  0
    3.4999  -12.2965   22.4259 H   0  0  0  0  0  0  0  0  0  0  0  0
  1  2  2  0
  2  3  1  0
  3  4  1  0
  4  5  1  0
  5  6  1  0
  6  7  1  0
  7  8  1  0
  8  9  1  0
  9 10  1  0
 10 11  2  0
 11 12  1  0
 12 13  2  0
 13 14  1  0
 14 15  2  0
 15 16  1  0
 16 17  2  0
 17 18  1  0
  3 19  1  0
 19 20  2  0
 20  1  1  0
  9  5  1  0
 18 10  1  0
 18 14  1  0
  1 21  1  0
  2 22  1  0
  4 23  1  0
  4 24  1  0
  5 25  1  0
  6 26  1  0
  6 27  1  0
  7 28  1  0
  7 29  1  0
  8 30  1  0
  8 31  1  0
 11 32  1  0
 12 33  1  0
 16 34  1  0
 17 35  1  0
 19 36  1  0
M  END
>  <Energy>  (404) 
932.08128468558289

>  <compound_id>  (404) 
8666

>  <target_id>  (404) 
1

>  <reference_id>  (404) 
107

>  <inspiration_ids>  (404) 
[114, 107]

>  <energy_score>  (404) 
830.1311964801328

>  <distance_score>  (404) 
13.546605016230215

>  <path>  (404) 
/opt/xchem-fragalysis-2/maxwin/BulkDock/SCRATCH/511022/C8666-P107/C8666-P107.minimised.mol

>  <scratch_subdir>  (404) 
/opt/xchem-fragalysis-2/maxwin/BulkDock/SCRATCH/511022/C8666-P107

>  <fragmenstein_runtime>  (404) 
28.400458335876465

>  <fragmenstein_outcome>  (404) 
too moved

>  <fragmenstein_mode>  (404) 
expansion

>  <fragmenstein_error>  (404) 


$$$$
C8665-P114
     RDKit          3D

 33 36  0  0  0  0  0  0  0  0999 V2000
    4.5073  -12.7610   20.6042 C   0  0  0  0  0  0  0  0  0  0  0  0
    5.2573  -11.7532   21.0264 C   0  0  0  0  0  0  0  0  0  0  0  0
    4.5104  -11.2744   22.3155 N   0  0  0  0  0  0  0  0  0  0  0  0
    3.6063  -12.5093   22.9229 C   0  0  0  0  0  0  0  0  0  0  0  0
    3.5009  -13.6458   24.6342 C   0  0  0  0  0  0  0  0  0  0  0  0
    2.8185  -14.2170   23.5382 C   0  0  0  0  0  0  0  0  0  0  0  0
    3.6791  -15.3593   23.5016 C   0  0  0  0  0  0  0  0  0  0  0  0
    4.7225  -15.6350   24.4149 C   0  0  0  0  0  0  0  0  0  0  0  0
    4.1490  -15.1932   25.7003 N   0  0  0  0  0  0  0  0  0  0  0  0
    3.4733  -16.7420   26.6273 C   0  0  0  0  0  0  0  0  0  0  0  0
    3.0790  -17.9620   25.9202 C   0  0  0  0  0  0  0  0  0  0  0  0
    2.2568  -19.1018   26.4386 C   0  0  0  0  0  0  0  0  0  0  0  0
    1.4940  -19.0541   27.4693 N   0  0  0  0  0  0  0  0  0  0  0  0
    1.6749  -17.9465   28.2295 C   0  0  0  0  0  0  0  0  0  0  0  0
    1.0595  -17.7262   29.3755 N   0  0  0  0  0  0  0  0  0  0  0  0
    2.0065  -17.1095   30.1110 C   0  0  0  0  0  0  0  0  0  0  0  0
    3.1061  -16.8123   29.3301 C   0  0  0  0  0  0  0  0  0  0  0  0
    2.7401  -16.9623   28.0061 N   0  0  0  0  0  0  0  0  0  0  0  0
    3.5330  -13.0278   21.6022 N   0  0  0  0  0  0  0  0  0  0  0  0
    4.5313  -13.2110   19.6237 H   0  0  0  0  0  0  0  0  0  0  0  0
    6.1074  -11.2909   20.5964 H   0  0  0  0  0  0  0  0  0  0  0  0
    5.0643  -10.6577   22.8953 H   0  0  0  0  0  0  0  0  0  0  0  0
    4.3751  -13.2955   25.1269 H   0  0  0  0  0  0  0  0  0  0  0  0
    1.8554  -14.7014   23.4010 H   0  0  0  0  0  0  0  0  0  0  0  0
    2.1242  -13.4507   23.9960 H   0  0  0  0  0  0  0  0  0  0  0  0
    3.7436  -15.1411   22.5333 H   0  0  0  0  0  0  0  0  0  0  0  0
    3.3808  -16.3666   23.3813 H   0  0  0  0  0  0  0  0  0  0  0  0
    5.7054  -15.9856   24.2561 H   0  0  0  0  0  0  0  0  0  0  0  0
    4.5556  -16.6844   24.3698 H   0  0  0  0  0  0  0  0  0  0  0  0
    3.2379  -18.1482   24.8722 H   0  0  0  0  0  0  0  0  0  0  0  0
    2.2412  -19.9932   25.7882 H   0  0  0  0  0  0  0  0  0  0  0  0
    1.8961  -16.9653   31.1775 H   0  0  0  0  0  0  0  0  0  0  0  0
    4.0839  -16.4807   29.6108 H   0  0  0  0  0  0  0  0  0  0  0  0
  1  2  2  0
  2  3  1  0
  3  4  1  0
  4  5  1  0
  5  6  1  0
  6  7  1  0
  7  8  1  0
  8  9  1  0
  9 10  1  0
 10 11  2  0
 11 12  1  0
 12 13  2  0
 13 14  1  0
 14 15  2  0
 15 16  1  0
 16 17  2  0
 17 18  1  0
  4 19  2  0
 19  1  1  0
  9  5  1  0
 18 10  1  0
 18 14  1  0
  1 20  1  0
  2 21  1  0
  3 22  1  0
  5 23  1  0
  6 24  1  0
  6 25  1  0
  7 26  1  0
  7 27  1  0
  8 28  1  0
  8 29  1  0
 11 30  1  0
 12 31  1  0
 16 32  1  0
 17 33  1  0
M  END
>  <Energy>  (405) 
742.57152329220378

>  <compound_id>  (405) 
8665

>  <target_id>  (405) 
1

>  <reference_id>  (405) 
114

>  <inspiration_ids>  (405) 
[114, 107]

>  <energy_score>  (405) 
640.6183377217541

>  <distance_score>  (405) 
15.305111249283115

>  <path>  (405) 
/opt/xchem-fragalysis-2/maxwin/BulkDock/SCRATCH/511022/C8665-P114/C8665-P114.minimised.mol

>  <scratch_subdir>  (405) 
/opt/xchem-fragalysis-2/maxwin/BulkDock/SCRATCH/511022/C8665-P114

>  <fragmenstein_runtime>  (405) 
18.76241183280945

>  <fragmenstein_outcome>  (405) 
too moved

>  <fragmenstein_mode>  (405) 
expansion

>  <fragmenstein_error>  (405) 


$$$$
C8665-P107
     RDKit          3D

 33 36  0  0  0  0  0  0  0  0999 V2000
   -0.4407  -14.1897   24.5821 C   0  0  0  0  0  0  0  0  0  0  0  0
    0.9095  -13.6544   25.5742 C   0  0  0  0  0  0  0  0  0  0  0  0
    0.6776  -14.1251   26.8316 N   0  0  0  0  0  0  0  0  0  0  0  0
   -1.2180  -14.4608   27.0403 C   0  0  0  0  0  0  0  0  0  0  0  0
   -2.2577  -15.6347   27.7569 C   0  0  0  0  0  0  0  0  0  0  0  0
   -3.4349  -15.7246   26.6663 C   0  0  0  0  0  0  0  0  0  0  0  0
   -4.3865  -14.5995   27.1096 C   0  0  0  0  0  0  0  0  0  0  0  0
   -4.0457  -14.3686   28.5907 C   0  0  0  0  0  0  0  0  0  0  0  0
   -3.2372  -15.5530   28.9770 N   0  0  0  0  0  0  0  0  0  0  0  0
   -3.9806  -16.8513   29.2083 C   0  0  0  0  0  0  0  0  0  0  0  0
   -3.2985  -18.0206   29.2320 C   0  0  0  0  0  0  0  0  0  0  0  0
   -4.0098  -19.2166   28.6937 C   0  0  0  0  0  0  0  0  0  0  0  0
   -5.1991  -19.2449   28.1835 N   0  0  0  0  0  0  0  0  0  0  0  0
   -5.9511  -18.1362   28.4149 C   0  0  0  0  0  0  0  0  0  0  0  0
   -7.2112  -17.9341   28.0818 N   0  0  0  0  0  0  0  0  0  0  0  0
   -7.5394  -16.7241   28.6104 C   0  0  0  0  0  0  0  0  0  0  0  0
   -6.4749  -16.1787   29.2823 C   0  0  0  0  0  0  0  0  0  0  0  0
   -5.3990  -16.9952   29.0172 N   0  0  0  0  0  0  0  0  0  0  0  0
   -1.6605  -14.0837   25.6335 N   0  0  0  0  0  0  0  0  0  0  0  0
   -0.4862  -14.1307   23.5134 H   0  0  0  0  0  0  0  0  0  0  0  0
    1.7901  -13.1749   25.1796 H   0  0  0  0  0  0  0  0  0  0  0  0
    1.2305  -14.8547   27.2451 H   0  0  0  0  0  0  0  0  0  0  0  0
   -1.7011  -16.5694   27.8399 H   0  0  0  0  0  0  0  0  0  0  0  0
   -3.9405  -16.6941   26.7169 H   0  0  0  0  0  0  0  0  0  0  0  0
   -3.1700  -15.6438   25.6110 H   0  0  0  0  0  0  0  0  0  0  0  0
   -5.4281  -14.8986   26.9622 H   0  0  0  0  0  0  0  0  0  0  0  0
   -4.2363  -13.6809   26.5335 H   0  0  0  0  0  0  0  0  0  0  0  0
   -4.9093  -14.1826   29.2235 H   0  0  0  0  0  0  0  0  0  0  0  0
   -3.4358  -13.4710   28.7196 H   0  0  0  0  0  0  0  0  0  0  0  0
   -2.2248  -18.0926   29.3271 H   0  0  0  0  0  0  0  0  0  0  0  0
   -3.3901  -20.1270   28.6313 H   0  0  0  0  0  0  0  0  0  0  0  0
   -8.5386  -16.3214   28.5134 H   0  0  0  0  0  0  0  0  0  0  0  0
   -6.3986  -15.2962   29.8946 H   0  0  0  0  0  0  0  0  0  0  0  0
  1  2  2  0
  2  3  1  0
  3  4  1  0
  4  5  1  0
  5  6  1  0
  6  7  1  0
  7  8  1  0
  8  9  1  0
  9 10  1  0
 10 11  2  0
 11 12  1  0
 12 13  2  0
 13 14  1  0
 14 15  2  0
 15 16  1  0
 16 17  2  0
 17 18  1  0
  4 19  2  0
 19  1  1  0
  9  5  1  0
 18 10  1  0
 18 14  1  0
  1 20  1  0
  2 21  1  0
  3 22  1  0
  5 23  1  0
  6 24  1  0
  6 25  1  0
  7 26  1  0
  7 27  1  0
  8 28  1  0
  8 29  1  0
 11 30  1  0
 12 31  1  0
 16 32  1  0
 17 33  1  0
M  END
>  <Energy>  (406) 
330.84072795877597

>  <compound_id>  (406) 
8665

>  <target_id>  (406) 
1

>  <reference_id>  (406) 
107

>  <inspiration_ids>  (406) 
[114, 107]

>  <energy_score>  (406) 
228.88754238833258

>  <distance_score>  (406) 
14.25614274749078

>  <path>  (406) 
/opt/xchem-fragalysis-2/maxwin/BulkDock/SCRATCH/511022/C8665-P107/C8665-P107.minimised.mol

>  <scratch_subdir>  (406) 
/opt/xchem-fragalysis-2/maxwin/BulkDock/SCRATCH/511022/C8665-P107

>  <fragmenstein_runtime>  (406) 
15.179489612579346

>  <fragmenstein_outcome>  (406) 
too moved

>  <fragmenstein_mode>  (406) 
expansion

>  <fragmenstein_error>  (406) 


$$$$
C8667-P114
     RDKit          3D

 35 37  0  0  0  0  0  0  0  0999 V2000
    3.5622   -9.1281   29.4902 C   0  0  0  0  0  0  0  0  0  0  0  0
    2.1587   -9.6564   29.5834 C   0  0  0  0  0  0  0  0  0  0  0  0
    1.6065  -10.5011   30.5373 C   0  0  0  0  0  0  0  0  0  0  0  0
    0.2373  -10.5922   30.2937 N   0  0  0  0  0  0  0  0  0  0  0  0
   -0.8033  -11.1721   31.2390 C   0  0  0  0  0  0  0  0  0  0  0  0
   -1.6880  -12.4518   30.8474 C   0  0  0  0  0  0  0  0  0  0  0  0
   -2.6711  -13.2343   31.8201 C   0  0  0  0  0  0  0  0  0  0  0  0
   -2.9535  -14.6353   31.3226 N   0  0  0  0  0  0  0  0  0  0  0  0
   -4.1395  -15.3501   30.9887 C   0  0  0  0  0  0  0  0  0  0  0  0
   -4.1224  -16.2687   29.9937 C   0  0  0  0  0  0  0  0  0  0  0  0
   -5.3987  -16.9573   29.6466 C   0  0  0  0  0  0  0  0  0  0  0  0
   -6.5499  -16.7548   30.1958 N   0  0  0  0  0  0  0  0  0  0  0  0
   -6.5438  -15.9103   31.2654 C   0  0  0  0  0  0  0  0  0  0  0  0
   -7.5599  -15.5938   32.0435 N   0  0  0  0  0  0  0  0  0  0  0  0
   -7.0461  -14.8241   33.0423 C   0  0  0  0  0  0  0  0  0  0  0  0
   -5.7085  -14.5853   32.8389 C   0  0  0  0  0  0  0  0  0  0  0  0
   -5.3759  -15.2402   31.6772 N   0  0  0  0  0  0  0  0  0  0  0  0
    0.0469   -9.7740   29.1911 C   0  0  0  0  0  0  0  0  0  0  0  0
    1.1744   -9.2732   28.7023 N   0  0  0  0  0  0  0  0  0  0  0  0
    3.9865   -9.0317   30.4956 H   0  0  0  0  0  0  0  0  0  0  0  0
    3.5810   -8.1360   29.0354 H   0  0  0  0  0  0  0  0  0  0  0  0
    4.1984   -9.8157   28.9283 H   0  0  0  0  0  0  0  0  0  0  0  0
    2.0470  -10.9898   31.3957 H   0  0  0  0  0  0  0  0  0  0  0  0
   -0.2481  -11.4069   32.1547 H   0  0  0  0  0  0  0  0  0  0  0  0
   -1.4711  -10.3305   31.4579 H   0  0  0  0  0  0  0  0  0  0  0  0
   -2.3583  -12.1227   30.0467 H   0  0  0  0  0  0  0  0  0  0  0  0
   -0.9919  -13.2066   30.4817 H   0  0  0  0  0  0  0  0  0  0  0  0
   -2.1989  -13.3220   32.8034 H   0  0  0  0  0  0  0  0  0  0  0  0
   -3.6036  -12.6720   31.9263 H   0  0  0  0  0  0  0  0  0  0  0  0
   -2.1398  -15.0282   30.8501 H   0  0  0  0  0  0  0  0  0  0  0  0
   -3.2519  -16.4997   29.3969 H   0  0  0  0  0  0  0  0  0  0  0  0
   -5.3276  -17.6707   28.8089 H   0  0  0  0  0  0  0  0  0  0  0  0
   -7.6675  -14.4744   33.8565 H   0  0  0  0  0  0  0  0  0  0  0  0
   -4.9784  -14.0385   33.4132 H   0  0  0  0  0  0  0  0  0  0  0  0
   -0.9429   -9.5782   28.7999 H   0  0  0  0  0  0  0  0  0  0  0  0
  1  2  1  0
  2  3  2  0
  3  4  1  0
  4  5  1  0
  5  6  1  0
  6  7  1  0
  7  8  1  0
  8  9  1  0
  9 10  2  0
 10 11  1  0
 11 12  2  0
 12 13  1  0
 13 14  2  0
 14 15  1  0
 15 16  2  0
 16 17  1  0
  4 18  1  0
 18 19  2  0
 19  2  1  0
 17  9  1  0
 17 13  1  0
  1 20  1  0
  1 21  1  0
  1 22  1  0
  3 23  1  0
  5 24  1  0
  5 25  1  0
  6 26  1  0
  6 27  1  0
  7 28  1  0
  7 29  1  0
  8 30  1  0
 10 31  1  0
 11 32  1  0
 15 33  1  0
 16 34  1  0
 18 35  1  0
M  END
>  <Energy>  (407) 
69.517055200008713

>  <compound_id>  (407) 
8667

>  <target_id>  (407) 
1

>  <reference_id>  (407) 
114

>  <inspiration_ids>  (407) 
[114, 107]

>  <energy_score>  (407) 
-17.78932507651689

>  <distance_score>  (407) 
14.216416572241581

>  <path>  (407) 
/opt/xchem-fragalysis-2/maxwin/BulkDock/SCRATCH/511022/C8667-P114/C8667-P114.minimised.mol

>  <scratch_subdir>  (407) 
/opt/xchem-fragalysis-2/maxwin/BulkDock/SCRATCH/511022/C8667-P114

>  <fragmenstein_runtime>  (407) 
19.503599882125854

>  <fragmenstein_outcome>  (407) 
too moved

>  <fragmenstein_mode>  (407) 
expansion

>  <fragmenstein_error>  (407) 


$$$$
C8667-P107
     RDKit          3D

 35 37  0  0  0  0  0  0  0  0999 V2000
    6.9681   -8.0066   26.8201 C   0  0  0  0  0  0  0  0  0  0  0  0
    5.8589   -8.3020   27.7869 C   0  0  0  0  0  0  0  0  0  0  0  0
    5.3038   -9.5074   28.2101 C   0  0  0  0  0  0  0  0  0  0  0  0
    4.1506   -9.1830   28.9273 N   0  0  0  0  0  0  0  0  0  0  0  0
    2.9453  -10.0478   29.2197 C   0  0  0  0  0  0  0  0  0  0  0  0
    1.5499   -9.7606   28.4423 C   0  0  0  0  0  0  0  0  0  0  0  0
    0.3383  -10.6618   27.7997 C   0  0  0  0  0  0  0  0  0  0  0  0
    0.0138  -11.7158   26.2482 N   0  0  0  0  0  0  0  0  0  0  0  0
   -1.7034  -12.4718   25.6875 C   0  0  0  0  0  0  0  0  0  0  0  0
   -1.9007  -13.8690   25.5421 C   0  0  0  0  0  0  0  0  0  0  0  0
   -3.2303  -14.5806   25.6827 C   0  0  0  0  0  0  0  0  0  0  0  0
   -4.3739  -14.0375   25.8914 N   0  0  0  0  0  0  0  0  0  0  0  0
   -4.3674  -12.6922   26.0671 C   0  0  0  0  0  0  0  0  0  0  0  0
   -5.4156  -11.9980   26.4581 N   0  0  0  0  0  0  0  0  0  0  0  0
   -4.9658  -10.7425   26.6923 C   0  0  0  0  0  0  0  0  0  0  0  0
   -3.6231  -10.6255   26.4141 C   0  0  0  0  0  0  0  0  0  0  0  0
   -3.1858  -11.8608   25.9764 N   0  0  0  0  0  0  0  0  0  0  0  0
    4.2320   -7.8225   29.1209 C   0  0  0  0  0  0  0  0  0  0  0  0
    5.1803   -7.2696   28.3901 N   0  0  0  0  0  0  0  0  0  0  0  0
    7.7305   -7.3867   27.3006 H   0  0  0  0  0  0  0  0  0  0  0  0
    6.5725   -7.4720   25.9512 H   0  0  0  0  0  0  0  0  0  0  0  0
    7.4368   -8.9330   26.4749 H   0  0  0  0  0  0  0  0  0  0  0  0
    5.5653  -10.5300   27.9793 H   0  0  0  0  0  0  0  0  0  0  0  0
    2.7807   -9.8745   30.2927 H   0  0  0  0  0  0  0  0  0  0  0  0
    3.2666  -11.0769   29.1408 H   0  0  0  0  0  0  0  0  0  0  0  0
    1.5578   -8.7920   27.9596 H   0  0  0  0  0  0  0  0  0  0  0  0
    0.9856   -9.4233   29.3366 H   0  0  0  0  0  0  0  0  0  0  0  0
   -0.0480  -11.1265   28.7110 H   0  0  0  0  0  0  0  0  0  0  0  0
   -0.4063   -9.8547   27.6426 H   0  0  0  0  0  0  0  0  0  0  0  0
    0.7556  -12.3806   25.9594 H   0  0  0  0  0  0  0  0  0  0  0  0
   -1.2458  -14.3814   24.8452 H   0  0  0  0  0  0  0  0  0  0  0  0
   -3.1894  -15.6708   25.5309 H   0  0  0  0  0  0  0  0  0  0  0  0
   -5.6299   -9.9683   27.0559 H   0  0  0  0  0  0  0  0  0  0  0  0
   -2.9752   -9.7726   26.5215 H   0  0  0  0  0  0  0  0  0  0  0  0
    3.5282   -7.2822   29.7421 H   0  0  0  0  0  0  0  0  0  0  0  0
  1  2  1  0
  2  3  2  0
  3  4  1  0
  4  5  1  0
  5  6  1  0
  6  7  1  0
  7  8  1  0
  8  9  1  0
  9 10  2  0
 10 11  1  0
 11 12  2  0
 12 13  1  0
 13 14  2  0
 14 15  1  0
 15 16  2  0
 16 17  1  0
  4 18  1  0
 18 19  2  0
 19  2  1  0
 17  9  1  0
 17 13  1  0
  1 20  1  0
  1 21  1  0
  1 22  1  0
  3 23  1  0
  5 24  1  0
  5 25  1  0
  6 26  1  0
  6 27  1  0
  7 28  1  0
  7 29  1  0
  8 30  1  0
 10 31  1  0
 11 32  1  0
 15 33  1  0
 16 34  1  0
 18 35  1  0
M  END
>  <Energy>  (408) 
299.96651536883394

>  <compound_id>  (408) 
8667

>  <target_id>  (408) 
1

>  <reference_id>  (408) 
107

>  <inspiration_ids>  (408) 
[114, 107]

>  <energy_score>  (408) 
212.6601350923038

>  <distance_score>  (408) 
15.139114278269822

>  <path>  (408) 
/opt/xchem-fragalysis-2/maxwin/BulkDock/SCRATCH/511022/C8667-P107/C8667-P107.minimised.mol

>  <scratch_subdir>  (408) 
/opt/xchem-fragalysis-2/maxwin/BulkDock/SCRATCH/511022/C8667-P107

>  <fragmenstein_runtime>  (408) 
20.703999757766724

>  <fragmenstein_outcome>  (408) 
too moved

>  <fragmenstein_mode>  (408) 
expansion

>  <fragmenstein_error>  (408) 


$$$$
C8668-P114
     RDKit          3D

 36 39  0  0  0  0  0  0  0  0999 V2000
    2.8435  -12.0560   23.2068 C   0  0  0  0  0  0  0  0  0  0  0  0
    2.6945  -13.1020   24.0208 C   0  0  0  0  0  0  0  0  0  0  0  0
    3.2172  -14.1208   23.3975 C   0  0  0  0  0  0  0  0  0  0  0  0
    4.2568  -14.9018   24.8899 C   0  0  0  0  0  0  0  0  0  0  0  0
    4.0649  -15.3211   26.7348 N   0  0  0  0  0  0  0  0  0  0  0  0
    3.2773  -16.5682   27.6485 C   0  0  0  0  0  0  0  0  0  0  0  0
    2.7816  -17.7437   27.1302 C   0  0  0  0  0  0  0  0  0  0  0  0
    1.8051  -18.6035   27.8626 C   0  0  0  0  0  0  0  0  0  0  0  0
    1.2692  -18.3348   28.9997 N   0  0  0  0  0  0  0  0  0  0  0  0
    1.7647  -17.2203   29.5984 C   0  0  0  0  0  0  0  0  0  0  0  0
    1.4097  -16.7635   30.7815 N   0  0  0  0  0  0  0  0  0  0  0  0
    2.2743  -15.7511   31.0544 C   0  0  0  0  0  0  0  0  0  0  0  0
    3.1366  -15.5240   30.0025 C   0  0  0  0  0  0  0  0  0  0  0  0
    2.7815  -16.3995   29.0054 N   0  0  0  0  0  0  0  0  0  0  0  0
    3.5776  -13.4701   21.6493 C   0  0  0  0  0  0  0  0  0  0  0  0
    4.6185  -12.5172   21.1010 C   0  0  0  0  0  0  0  0  0  0  0  0
    6.5015  -12.3286   21.2573 C   0  0  0  0  0  0  0  0  0  0  0  0
    7.6694  -12.9639   20.8837 N   0  0  0  0  0  0  0  0  0  0  0  0
    8.9662  -12.9726   21.7913 C   0  0  0  0  0  0  0  0  0  0  0  0
    8.6627  -12.3918   23.0389 C   0  0  0  0  0  0  0  0  0  0  0  0
    7.1890  -11.8198   22.8291 N   0  0  0  0  0  0  0  0  0  0  0  0
    4.0367  -11.7278   22.1598 C   0  0  0  0  0  0  0  0  0  0  0  0
    1.8482  -11.6889   23.0794 H   0  0  0  0  0  0  0  0  0  0  0  0
    1.9568  -13.0985   24.7974 H   0  0  0  0  0  0  0  0  0  0  0  0
    4.9300  -14.1627   25.2795 H   0  0  0  0  0  0  0  0  0  0  0  0
    4.7617  -15.7547   24.4322 H   0  0  0  0  0  0  0  0  0  0  0  0
    3.8677  -14.4379   27.2151 H   0  0  0  0  0  0  0  0  0  0  0  0
    2.8860  -18.0727   26.1036 H   0  0  0  0  0  0  0  0  0  0  0  0
    1.4951  -19.5147   27.3234 H   0  0  0  0  0  0  0  0  0  0  0  0
    2.2394  -15.2256   32.0001 H   0  0  0  0  0  0  0  0  0  0  0  0
    3.9418  -14.8181   29.8678 H   0  0  0  0  0  0  0  0  0  0  0  0
    2.9464  -13.9105   20.8835 H   0  0  0  0  0  0  0  0  0  0  0  0
    9.8407  -13.4963   21.4246 H   0  0  0  0  0  0  0  0  0  0  0  0
    9.1225  -12.2187   24.0025 H   0  0  0  0  0  0  0  0  0  0  0  0
    6.6542  -11.2697   23.4909 H   0  0  0  0  0  0  0  0  0  0  0  0
    4.6727  -10.8976   22.4765 H   0  0  0  0  0  0  0  0  0  0  0  0
  1  2  2  0
  2  3  1  0
  3  4  1  0
  4  5  1  0
  5  6  1  0
  6  7  2  0
  7  8  1  0
  8  9  2  0
  9 10  1  0
 10 11  2  0
 11 12  1  0
 12 13  2  0
 13 14  1  0
  3 15  2  0
 15 16  1  0
 16 17  1  0
 17 18  2  0
 18 19  1  0
 19 20  2  0
 20 21  1  0
 16 22  2  0
 22  1  1  0
 14  6  1  0
 21 17  1  0
 14 10  1  0
  1 23  1  0
  2 24  1  0
  4 25  1  0
  4 26  1  0
  5 27  1  0
  7 28  1  0
  8 29  1  0
 12 30  1  0
 13 31  1  0
 15 32  1  0
 19 33  1  0
 20 34  1  0
 21 35  1  0
 22 36  1  0
M  END
>  <Energy>  (409) 
672.25223710395187

>  <compound_id>  (409) 
8668

>  <target_id>  (409) 
1

>  <reference_id>  (409) 
114

>  <inspiration_ids>  (409) 
[114, 107]

>  <energy_score>  (409) 
581.2598623133659

>  <distance_score>  (409) 
14.960394754902445

>  <path>  (409) 
/opt/xchem-fragalysis-2/maxwin/BulkDock/SCRATCH/511022/C8668-P114/C8668-P114.minimised.mol

>  <scratch_subdir>  (409) 
/opt/xchem-fragalysis-2/maxwin/BulkDock/SCRATCH/511022/C8668-P114

>  <fragmenstein_runtime>  (409) 
24.09465479850769

>  <fragmenstein_outcome>  (409) 
too moved

>  <fragmenstein_mode>  (409) 
expansion

>  <fragmenstein_error>  (409) 


$$$$
C8668-P107
     RDKit          3D

 36 39  0  0  0  0  0  0  0  0999 V2000
    1.9599  -16.4432   31.8435 C   0  0  0  0  0  0  0  0  0  0  0  0
    1.0150  -17.2365   31.1795 C   0  0  0  0  0  0  0  0  0  0  0  0
    1.0554  -17.3761   29.7916 C   0  0  0  0  0  0  0  0  0  0  0  0
    0.0391  -18.3135   29.0787 C   0  0  0  0  0  0  0  0  0  0  0  0
   -1.3587  -18.3566   29.6493 N   0  0  0  0  0  0  0  0  0  0  0  0
   -2.5042  -18.8967   28.9901 C   0  0  0  0  0  0  0  0  0  0  0  0
   -2.4430  -19.7981   27.9893 C   0  0  0  0  0  0  0  0  0  0  0  0
   -3.7179  -20.1507   27.3023 C   0  0  0  0  0  0  0  0  0  0  0  0
   -4.8868  -19.6390   27.5193 N   0  0  0  0  0  0  0  0  0  0  0  0
   -4.9499  -18.7524   28.5563 C   0  0  0  0  0  0  0  0  0  0  0  0
   -6.0082  -18.0946   28.9891 N   0  0  0  0  0  0  0  0  0  0  0  0
   -5.6168  -17.5089   30.1620 C   0  0  0  0  0  0  0  0  0  0  0  0
   -4.2705  -17.6875   30.3809 C   0  0  0  0  0  0  0  0  0  0  0  0
   -3.8186  -18.4520   29.3306 N   0  0  0  0  0  0  0  0  0  0  0  0
    2.1397  -16.7008   29.1045 C   0  0  0  0  0  0  0  0  0  0  0  0
    3.0889  -15.8344   29.7516 C   0  0  0  0  0  0  0  0  0  0  0  0
    4.1234  -14.9706   29.0222 C   0  0  0  0  0  0  0  0  0  0  0  0
    4.5415  -15.0563   27.7690 N   0  0  0  0  0  0  0  0  0  0  0  0
    5.5183  -14.0984   27.5841 C   0  0  0  0  0  0  0  0  0  0  0  0
    5.6527  -13.3248   28.7023 C   0  0  0  0  0  0  0  0  0  0  0  0
    4.7533  -13.8613   29.5876 N   0  0  0  0  0  0  0  0  0  0  0  0
    2.9688  -15.7522   31.1462 C   0  0  0  0  0  0  0  0  0  0  0  0
    1.9107  -16.3600   32.9282 H   0  0  0  0  0  0  0  0  0  0  0  0
    0.2615  -17.7612   31.7648 H   0  0  0  0  0  0  0  0  0  0  0  0
   -0.0294  -18.0151   28.0297 H   0  0  0  0  0  0  0  0  0  0  0  0
    0.4526  -19.3281   29.1121 H   0  0  0  0  0  0  0  0  0  0  0  0
   -1.5850  -17.4740   30.1075 H   0  0  0  0  0  0  0  0  0  0  0  0
   -1.5268  -20.2333   27.6187 H   0  0  0  0  0  0  0  0  0  0  0  0
   -3.6140  -20.9004   26.4998 H   0  0  0  0  0  0  0  0  0  0  0  0
   -6.3239  -16.9819   30.7886 H   0  0  0  0  0  0  0  0  0  0  0  0
   -3.6240  -17.3733   31.1849 H   0  0  0  0  0  0  0  0  0  0  0  0
    2.2334  -16.8335   28.0287 H   0  0  0  0  0  0  0  0  0  0  0  0
    6.0469  -14.0112   26.6516 H   0  0  0  0  0  0  0  0  0  0  0  0
    6.2821  -12.4825   28.9484 H   0  0  0  0  0  0  0  0  0  0  0  0
    4.5862  -13.5308   30.5251 H   0  0  0  0  0  0  0  0  0  0  0  0
    3.6593  -15.1547   31.7345 H   0  0  0  0  0  0  0  0  0  0  0  0
  1  2  2  0
  2  3  1  0
  3  4  1  0
  4  5  1  0
  5  6  1  0
  6  7  2  0
  7  8  1  0
  8  9  2  0
  9 10  1  0
 10 11  2  0
 11 12  1  0
 12 13  2  0
 13 14  1  0
  3 15  2  0
 15 16  1  0
 16 17  1  0
 17 18  2  0
 18 19  1  0
 19 20  2  0
 20 21  1  0
 16 22  2  0
 22  1  1  0
 14  6  1  0
 21 17  1  0
 14 10  1  0
  1 23  1  0
  2 24  1  0
  4 25  1  0
  4 26  1  0
  5 27  1  0
  7 28  1  0
  8 29  1  0
 12 30  1  0
 13 31  1  0
 15 32  1  0
 19 33  1  0
 20 34  1  0
 21 35  1  0
 22 36  1  0
M  END
>  <Energy>  (410) 
77.23600284006821

>  <compound_id>  (410) 
8668

>  <target_id>  (410) 
1

>  <reference_id>  (410) 
107

>  <inspiration_ids>  (410) 
[114, 107]

>  <energy_score>  (410) 
-13.75637195051479

>  <distance_score>  (410) 
13.739347326537915

>  <path>  (410) 
/opt/xchem-fragalysis-2/maxwin/BulkDock/SCRATCH/511022/C8668-P107/C8668-P107.minimised.mol

>  <scratch_subdir>  (410) 
/opt/xchem-fragalysis-2/maxwin/BulkDock/SCRATCH/511022/C8668-P107

>  <fragmenstein_runtime>  (410) 
20.175782203674316

>  <fragmenstein_outcome>  (410) 
too moved

>  <fragmenstein_mode>  (410) 
expansion

>  <fragmenstein_error>  (410) 


$$$$
C8669-P114
     RDKit          3D

 32 34  0  0  0  0  0  0  0  0999 V2000
   -2.8203   -9.8477   20.3647 C   0  0  0  0  0  0  0  0  0  0  0  0
   -1.4841   -9.2984   20.3415 N   0  0  0  0  0  0  0  0  0  0  0  0
   -0.9988   -8.5483   19.2916 C   0  0  0  0  0  0  0  0  0  0  0  0
    0.3052   -8.3023   19.6668 C   0  0  0  0  0  0  0  0  0  0  0  0
    0.5575   -8.7560   20.9422 N   0  0  0  0  0  0  0  0  0  0  0  0
   -0.3753   -9.6651   21.1474 C   0  0  0  0  0  0  0  0  0  0  0  0
   -0.2913  -10.7948   22.2092 C   0  0  0  0  0  0  0  0  0  0  0  0
   -0.2540  -12.7406   22.7035 C   0  0  0  0  0  0  0  0  0  0  0  0
   -0.6823  -14.1523   24.0425 N   0  0  0  0  0  0  0  0  0  0  0  0
   -1.5600  -14.3349   25.5133 C   0  0  0  0  0  0  0  0  0  0  0  0
   -2.3752  -13.3669   26.0350 C   0  0  0  0  0  0  0  0  0  0  0  0
   -3.6322  -13.7519   26.7640 C   0  0  0  0  0  0  0  0  0  0  0  0
   -4.0619  -14.9421   27.0077 N   0  0  0  0  0  0  0  0  0  0  0  0
   -3.1618  -15.9150   26.7392 C   0  0  0  0  0  0  0  0  0  0  0  0
   -3.2718  -17.1936   27.0441 N   0  0  0  0  0  0  0  0  0  0  0  0
   -1.9972  -17.6607   27.0354 C   0  0  0  0  0  0  0  0  0  0  0  0
   -1.1317  -16.6872   26.5886 C   0  0  0  0  0  0  0  0  0  0  0  0
   -1.9006  -15.6295   26.1368 N   0  0  0  0  0  0  0  0  0  0  0  0
   -2.7618  -10.9232   20.1817 H   0  0  0  0  0  0  0  0  0  0  0  0
   -3.2637   -9.6304   21.3390 H   0  0  0  0  0  0  0  0  0  0  0  0
   -3.4217   -9.3746   19.5838 H   0  0  0  0  0  0  0  0  0  0  0  0
   -1.5549   -8.3571   18.3867 H   0  0  0  0  0  0  0  0  0  0  0  0
    1.1022   -7.9170   19.0680 H   0  0  0  0  0  0  0  0  0  0  0  0
   -1.3452  -10.6982   21.9812 H   0  0  0  0  0  0  0  0  0  0  0  0
   -0.1084  -10.1383   22.9887 H   0  0  0  0  0  0  0  0  0  0  0  0
   -0.1403  -13.7230   22.1786 H   0  0  0  0  0  0  0  0  0  0  0  0
   -1.1785  -12.2774   21.6655 H   0  0  0  0  0  0  0  0  0  0  0  0
   -1.0849  -14.9011   23.4539 H   0  0  0  0  0  0  0  0  0  0  0  0
   -2.4040  -12.3325   25.7577 H   0  0  0  0  0  0  0  0  0  0  0  0
   -4.2800  -12.8980   27.0280 H   0  0  0  0  0  0  0  0  0  0  0  0
   -1.7523  -18.6449   27.4147 H   0  0  0  0  0  0  0  0  0  0  0  0
   -0.0570  -16.6284   26.6201 H   0  0  0  0  0  0  0  0  0  0  0  0
  1  2  1  0
  2  3  1  0
  3  4  2  0
  4  5  1  0
  5  6  2  0
  6  7  1  0
  7  8  1  0
  8  9  1  0
  9 10  1  0
 10 11  2  0
 11 12  1  0
 12 13  2  0
 13 14  1  0
 14 15  2  0
 15 16  1  0
 16 17  2  0
 17 18  1  0
  6  2  1  0
 18 10  1  0
 18 14  1  0
  1 19  1  0
  1 20  1  0
  1 21  1  0
  3 22  1  0
  4 23  1  0
  7 24  1  0
  7 25  1  0
  8 26  1  0
  8 27  1  0
  9 28  1  0
 11 29  1  0
 12 30  1  0
 16 31  1  0
 17 32  1  0
M  END
>  <Energy>  (411) 
488.01487830006749

>  <compound_id>  (411) 
8669

>  <target_id>  (411) 
1

>  <reference_id>  (411) 
114

>  <inspiration_ids>  (411) 
[114, 107]

>  <energy_score>  (411) 
399.9654222601132

>  <distance_score>  (411) 
14.12837543554186

>  <path>  (411) 
/opt/xchem-fragalysis-2/maxwin/BulkDock/SCRATCH/511022/C8669-P114/C8669-P114.minimised.mol

>  <scratch_subdir>  (411) 
/opt/xchem-fragalysis-2/maxwin/BulkDock/SCRATCH/511022/C8669-P114

>  <fragmenstein_runtime>  (411) 
17.08977437019348

>  <fragmenstein_outcome>  (411) 
too moved

>  <fragmenstein_mode>  (411) 
expansion

>  <fragmenstein_error>  (411) 


$$$$
C8669-P107
     RDKit          3D

 32 34  0  0  0  0  0  0  0  0999 V2000
   -1.0210   -8.5202   18.8347 C   0  0  0  0  0  0  0  0  0  0  0  0
   -2.0812   -9.4029   18.4592 N   0  0  0  0  0  0  0  0  0  0  0  0
   -2.9281   -8.9751   17.4600 C   0  0  0  0  0  0  0  0  0  0  0  0
   -3.8792   -9.9409   17.3677 C   0  0  0  0  0  0  0  0  0  0  0  0
   -3.5982  -10.9604   18.2270 N   0  0  0  0  0  0  0  0  0  0  0  0
   -2.5283  -10.6387   18.9387 C   0  0  0  0  0  0  0  0  0  0  0  0
   -2.0507  -11.5894   20.1606 C   0  0  0  0  0  0  0  0  0  0  0  0
   -2.4326  -13.1300   19.8719 C   0  0  0  0  0  0  0  0  0  0  0  0
   -2.3531  -14.9711   20.3377 N   0  0  0  0  0  0  0  0  0  0  0  0
   -3.4564  -16.3535   20.2605 C   0  0  0  0  0  0  0  0  0  0  0  0
   -4.8288  -16.3563   20.4283 C   0  0  0  0  0  0  0  0  0  0  0  0
   -5.6259  -17.5789   20.7136 C   0  0  0  0  0  0  0  0  0  0  0  0
   -5.1614  -18.7625   20.8759 N   0  0  0  0  0  0  0  0  0  0  0  0
   -3.8235  -18.8609   20.6784 C   0  0  0  0  0  0  0  0  0  0  0  0
   -3.1168  -19.9573   20.8521 N   0  0  0  0  0  0  0  0  0  0  0  0
   -1.8476  -19.6396   20.4907 C   0  0  0  0  0  0  0  0  0  0  0  0
   -1.7407  -18.3090   20.1587 C   0  0  0  0  0  0  0  0  0  0  0  0
   -2.9912  -17.7508   20.3047 N   0  0  0  0  0  0  0  0  0  0  0  0
   -1.2860   -7.5310   18.4630 H   0  0  0  0  0  0  0  0  0  0  0  0
   -0.8692   -8.5688   19.9130 H   0  0  0  0  0  0  0  0  0  0  0  0
   -0.1143   -8.6953   18.2643 H   0  0  0  0  0  0  0  0  0  0  0  0
   -2.8052   -8.0324   16.9438 H   0  0  0  0  0  0  0  0  0  0  0  0
   -4.7455   -9.9725   16.7199 H   0  0  0  0  0  0  0  0  0  0  0  0
   -2.6366  -11.1881   20.9908 H   0  0  0  0  0  0  0  0  0  0  0  0
   -1.0530  -11.3723   20.4267 H   0  0  0  0  0  0  0  0  0  0  0  0
   -2.1927  -13.1714   18.7935 H   0  0  0  0  0  0  0  0  0  0  0  0
   -3.4375  -12.8042   20.1425 H   0  0  0  0  0  0  0  0  0  0  0  0
   -1.6089  -15.3746   19.7639 H   0  0  0  0  0  0  0  0  0  0  0  0
   -5.5055  -15.5206   20.4351 H   0  0  0  0  0  0  0  0  0  0  0  0
   -6.7108  -17.4112   20.8244 H   0  0  0  0  0  0  0  0  0  0  0  0
   -1.0538  -20.3759   20.5129 H   0  0  0  0  0  0  0  0  0  0  0  0
   -0.8822  -17.7101   19.9159 H   0  0  0  0  0  0  0  0  0  0  0  0
  1  2  1  0
  2  3  1  0
  3  4  2  0
  4  5  1  0
  5  6  2  0
  6  7  1  0
  7  8  1  0
  8  9  1  0
  9 10  1  0
 10 11  2  0
 11 12  1  0
 12 13  2  0
 13 14  1  0
 14 15  2  0
 15 16  1  0
 16 17  2  0
 17 18  1  0
  6  2  1  0
 18 10  1  0
 18 14  1  0
  1 19  1  0
  1 20  1  0
  1 21  1  0
  3 22  1  0
  4 23  1  0
  7 24  1  0
  7 25  1  0
  8 26  1  0
  8 27  1  0
  9 28  1  0
 11 29  1  0
 12 30  1  0
 16 31  1  0
 17 32  1  0
M  END
>  <Energy>  (412) 
239.79526398551948

>  <compound_id>  (412) 
8669

>  <target_id>  (412) 
1

>  <reference_id>  (412) 
107

>  <inspiration_ids>  (412) 
[114, 107]

>  <energy_score>  (412) 
151.74580794557028

>  <distance_score>  (412) 
15.804187738399184

>  <path>  (412) 
/opt/xchem-fragalysis-2/maxwin/BulkDock/SCRATCH/511022/C8669-P107/C8669-P107.minimised.mol

>  <scratch_subdir>  (412) 
/opt/xchem-fragalysis-2/maxwin/BulkDock/SCRATCH/511022/C8669-P107

>  <fragmenstein_runtime>  (412) 
17.81307888031006

>  <fragmenstein_outcome>  (412) 
too moved

>  <fragmenstein_mode>  (412) 
expansion

>  <fragmenstein_error>  (412) 


$$$$
C8670-P114
     RDKit          3D

 33 36  0  0  0  0  0  0  0  0999 V2000
    6.3479  -15.9697   27.5389 C   0  0  0  0  0  0  0  0  0  0  0  0
    6.8771  -14.7498   27.8985 C   0  0  0  0  0  0  0  0  0  0  0  0
    5.6828  -13.6928   28.5193 S   0  0  0  0  0  0  0  0  0  0  0  0
    4.4491  -14.8485   28.2833 C   0  0  0  0  0  0  0  0  0  0  0  0
    2.9248  -14.6489   28.6438 C   0  0  0  0  0  0  0  0  0  0  0  0
    2.3733  -13.4876   29.1139 C   0  0  0  0  0  0  0  0  0  0  0  0
    1.0565  -13.7887   29.3290 N   0  0  0  0  0  0  0  0  0  0  0  0
    0.8029  -15.1250   29.0273 C   0  0  0  0  0  0  0  0  0  0  0  0
   -0.5676  -15.7903   29.4914 C   0  0  0  0  0  0  0  0  0  0  0  0
   -1.3342  -16.8754   28.7774 N   0  0  0  0  0  0  0  0  0  0  0  0
   -2.7215  -17.2173   28.9195 C   0  0  0  0  0  0  0  0  0  0  0  0
   -3.6398  -16.4142   29.4984 C   0  0  0  0  0  0  0  0  0  0  0  0
   -5.0758  -16.8280   29.4540 C   0  0  0  0  0  0  0  0  0  0  0  0
   -5.5644  -17.8728   28.8735 N   0  0  0  0  0  0  0  0  0  0  0  0
   -4.6417  -18.7174   28.3398 C   0  0  0  0  0  0  0  0  0  0  0  0
   -4.8710  -19.8596   27.7192 N   0  0  0  0  0  0  0  0  0  0  0  0
   -3.6429  -20.3820   27.4429 C   0  0  0  0  0  0  0  0  0  0  0  0
   -2.6391  -19.5251   27.8278 C   0  0  0  0  0  0  0  0  0  0  0  0
   -3.2608  -18.4326   28.3849 N   0  0  0  0  0  0  0  0  0  0  0  0
    1.9441  -15.6547   28.5956 N   0  0  0  0  0  0  0  0  0  0  0  0
    4.9445  -16.0323   27.7800 C   0  0  0  0  0  0  0  0  0  0  0  0
    6.9369  -16.7785   27.1238 H   0  0  0  0  0  0  0  0  0  0  0  0
    7.9081  -14.4307   27.8308 H   0  0  0  0  0  0  0  0  0  0  0  0
    2.7834  -12.5186   29.3496 H   0  0  0  0  0  0  0  0  0  0  0  0
    0.3945  -13.1737   29.7751 H   0  0  0  0  0  0  0  0  0  0  0  0
   -0.3649  -16.1728   30.5003 H   0  0  0  0  0  0  0  0  0  0  0  0
   -1.2542  -14.9437   29.6140 H   0  0  0  0  0  0  0  0  0  0  0  0
   -0.7314  -17.6241   28.4420 H   0  0  0  0  0  0  0  0  0  0  0  0
   -3.4228  -15.4544   29.9404 H   0  0  0  0  0  0  0  0  0  0  0  0
   -5.7706  -16.1249   29.9435 H   0  0  0  0  0  0  0  0  0  0  0  0
   -3.5381  -21.3460   26.9619 H   0  0  0  0  0  0  0  0  0  0  0  0
   -1.5655  -19.5979   27.7518 H   0  0  0  0  0  0  0  0  0  0  0  0
    4.3206  -16.8947   27.5767 H   0  0  0  0  0  0  0  0  0  0  0  0
  1  2  2  0
  2  3  1  0
  3  4  1  0
  4  5  1  0
  5  6  2  0
  6  7  1  0
  7  8  1  0
  8  9  1  0
  9 10  1  0
 10 11  1  0
 11 12  2  0
 12 13  1  0
 13 14  2  0
 14 15  1  0
 15 16  2  0
 16 17  1  0
 17 18  2  0
 18 19  1  0
  8 20  2  0
  4 21  2  0
 21  1  1  0
 20  5  1  0
 19 11  1  0
 19 15  1  0
  1 22  1  0
  2 23  1  0
  6 24  1  0
  7 25  1  0
  9 26  1  0
  9 27  1  0
 10 28  1  0
 12 29  1  0
 13 30  1  0
 17 31  1  0
 18 32  1  0
 21 33  1  0
M  END
>  <Energy>  (413) 
76.185458530854461

>  <compound_id>  (413) 
8670

>  <target_id>  (413) 
1

>  <reference_id>  (413) 
114

>  <inspiration_ids>  (413) 
[114, 107]

>  <energy_score>  (413) 
-34.09252219866784

>  <distance_score>  (413) 
15.063357961228432

>  <path>  (413) 
/opt/xchem-fragalysis-2/maxwin/BulkDock/SCRATCH/511022/C8670-P114/C8670-P114.minimised.mol

>  <scratch_subdir>  (413) 
/opt/xchem-fragalysis-2/maxwin/BulkDock/SCRATCH/511022/C8670-P114

>  <fragmenstein_runtime>  (413) 
13.459561586380005

>  <fragmenstein_outcome>  (413) 
too moved

>  <fragmenstein_mode>  (413) 
expansion

>  <fragmenstein_error>  (413) 


$$$$
C8670-P107
     RDKit          3D

 33 36  0  0  0  0  0  0  0  0999 V2000
   -1.8501   -7.5760   20.7268 C   0  0  0  0  0  0  0  0  0  0  0  0
   -1.4614   -6.5675   21.5815 C   0  0  0  0  0  0  0  0  0  0  0  0
   -2.0722   -6.7987   23.1641 S   0  0  0  0  0  0  0  0  0  0  0  0
   -2.8252   -8.2620   22.7192 C   0  0  0  0  0  0  0  0  0  0  0  0
   -3.5946   -9.2170   23.7120 C   0  0  0  0  0  0  0  0  0  0  0  0
   -3.6866   -9.0701   25.0715 C   0  0  0  0  0  0  0  0  0  0  0  0
   -4.3306  -10.2019   25.5322 N   0  0  0  0  0  0  0  0  0  0  0  0
   -4.6664  -11.0046   24.4617 C   0  0  0  0  0  0  0  0  0  0  0  0
   -5.6090  -12.2852   24.5484 C   0  0  0  0  0  0  0  0  0  0  0  0
   -5.8158  -13.1978   25.7707 N   0  0  0  0  0  0  0  0  0  0  0  0
   -6.8545  -14.2063   25.8796 C   0  0  0  0  0  0  0  0  0  0  0  0
   -7.8692  -14.3129   24.9941 C   0  0  0  0  0  0  0  0  0  0  0  0
   -8.9083  -15.3557   25.2210 C   0  0  0  0  0  0  0  0  0  0  0  0
   -8.9591  -16.2006   26.1955 N   0  0  0  0  0  0  0  0  0  0  0  0
   -7.9375  -16.1195   27.0911 C   0  0  0  0  0  0  0  0  0  0  0  0
   -7.7519  -16.8809   28.1492 N   0  0  0  0  0  0  0  0  0  0  0  0
   -6.6101  -16.4253   28.7429 C   0  0  0  0  0  0  0  0  0  0  0  0
   -6.0750  -15.3694   28.0373 C   0  0  0  0  0  0  0  0  0  0  0  0
   -6.9072  -15.1611   26.9591 N   0  0  0  0  0  0  0  0  0  0  0  0
   -4.1815  -10.4287   23.3491 N   0  0  0  0  0  0  0  0  0  0  0  0
   -2.6593   -8.5500   21.3829 C   0  0  0  0  0  0  0  0  0  0  0  0
   -1.5552   -7.6252   19.6851 H   0  0  0  0  0  0  0  0  0  0  0  0
   -0.8412   -5.7105   21.3566 H   0  0  0  0  0  0  0  0  0  0  0  0
   -3.3527   -8.2972   25.7497 H   0  0  0  0  0  0  0  0  0  0  0  0
   -4.5998  -10.3813   26.4907 H   0  0  0  0  0  0  0  0  0  0  0  0
   -6.5971  -11.8878   24.2837 H   0  0  0  0  0  0  0  0  0  0  0  0
   -5.2944  -12.9400   23.7268 H   0  0  0  0  0  0  0  0  0  0  0  0
   -4.9319  -13.5335   26.1532 H   0  0  0  0  0  0  0  0  0  0  0  0
   -7.9994  -13.6773   24.1306 H   0  0  0  0  0  0  0  0  0  0  0  0
   -9.7090  -15.3778   24.4625 H   0  0  0  0  0  0  0  0  0  0  0  0
   -6.2310  -16.8827   29.6499 H   0  0  0  0  0  0  0  0  0  0  0  0
   -5.1985  -14.7638   28.2074 H   0  0  0  0  0  0  0  0  0  0  0  0
   -3.0597   -9.4346   20.9026 H   0  0  0  0  0  0  0  0  0  0  0  0
  1  2  2  0
  2  3  1  0
  3  4  1  0
  4  5  1  0
  5  6  2  0
  6  7  1  0
  7  8  1  0
  8  9  1  0
  9 10  1  0
 10 11  1  0
 11 12  2  0
 12 13  1  0
 13 14  2  0
 14 15  1  0
 15 16  2  0
 16 17  1  0
 17 18  2  0
 18 19  1  0
  8 20  2  0
  4 21  2  0
 21  1  1  0
 20  5  1  0
 19 11  1  0
 19 15  1  0
  1 22  1  0
  2 23  1  0
  6 24  1  0
  7 25  1  0
  9 26  1  0
  9 27  1  0
 10 28  1  0
 12 29  1  0
 13 30  1  0
 17 31  1  0
 18 32  1  0
 21 33  1  0
M  END
>  <Energy>  (414) 
73.656662307559387

>  <compound_id>  (414) 
8670

>  <target_id>  (414) 
1

>  <reference_id>  (414) 
107

>  <inspiration_ids>  (414) 
[114, 107]

>  <energy_score>  (414) 
-36.621318421960325

>  <distance_score>  (414) 
14.617346049536884

>  <path>  (414) 
/opt/xchem-fragalysis-2/maxwin/BulkDock/SCRATCH/511022/C8670-P107/C8670-P107.minimised.mol

>  <scratch_subdir>  (414) 
/opt/xchem-fragalysis-2/maxwin/BulkDock/SCRATCH/511022/C8670-P107

>  <fragmenstein_runtime>  (414) 
16.36871910095215

>  <fragmenstein_outcome>  (414) 
too moved

>  <fragmenstein_mode>  (414) 
expansion

>  <fragmenstein_error>  (414) 


$$$$
C8666-P114
     RDKit          3D

 36 39  0  0  0  0  0  0  0  0999 V2000
    5.9632  -11.1341   23.6912 C   0  0  0  0  0  0  0  0  0  0  0  0
    5.4484  -12.0031   24.6650 C   0  0  0  0  0  0  0  0  0  0  0  0
    3.7517  -12.6890   23.9872 N   0  0  0  0  0  0  0  0  0  0  0  0
    2.0486  -12.4631   24.7037 C   0  0  0  0  0  0  0  0  0  0  0  0
    0.6765  -13.4897   25.7635 C   0  0  0  0  0  0  0  0  0  0  0  0
    0.6262  -14.2988   24.2883 C   0  0  0  0  0  0  0  0  0  0  0  0
   -0.5935  -14.2519   23.5361 C   0  0  0  0  0  0  0  0  0  0  0  0
   -1.5027  -14.7882   24.6093 C   0  0  0  0  0  0  0  0  0  0  0  0
   -1.3748  -13.8056   25.8174 N   0  0  0  0  0  0  0  0  0  0  0  0
   -2.3424  -14.7761   27.0510 C   0  0  0  0  0  0  0  0  0  0  0  0
   -2.9085  -16.0218   26.7804 C   0  0  0  0  0  0  0  0  0  0  0  0
   -3.5434  -16.9483   27.7475 C   0  0  0  0  0  0  0  0  0  0  0  0
   -3.8904  -16.6582   28.9410 N   0  0  0  0  0  0  0  0  0  0  0  0
   -3.7510  -15.3485   29.2423 C   0  0  0  0  0  0  0  0  0  0  0  0
   -4.3097  -14.7839   30.2913 N   0  0  0  0  0  0  0  0  0  0  0  0
   -4.2388  -13.4572   30.0737 C   0  0  0  0  0  0  0  0  0  0  0  0
   -3.5782  -13.1901   28.9011 C   0  0  0  0  0  0  0  0  0  0  0  0
   -3.0743  -14.3904   28.3874 N   0  0  0  0  0  0  0  0  0  0  0  0
    3.8614  -11.9328   22.5467 C   0  0  0  0  0  0  0  0  0  0  0  0
    4.8892  -10.9899   22.5359 N   0  0  0  0  0  0  0  0  0  0  0  0
    6.9017  -10.6165   23.7208 H   0  0  0  0  0  0  0  0  0  0  0  0
    5.7137  -12.5060   25.6050 H   0  0  0  0  0  0  0  0  0  0  0  0
    1.7775  -12.0456   23.7455 H   0  0  0  0  0  0  0  0  0  0  0  0
    2.6156  -13.3655   24.9157 H   0  0  0  0  0  0  0  0  0  0  0  0
    1.1853  -13.9106   26.6572 H   0  0  0  0  0  0  0  0  0  0  0  0
    1.3750  -14.8077   23.5980 H   0  0  0  0  0  0  0  0  0  0  0  0
    1.4124  -13.8188   23.8956 H   0  0  0  0  0  0  0  0  0  0  0  0
   -0.7709  -14.8121   22.5993 H   0  0  0  0  0  0  0  0  0  0  0  0
   -0.3239  -13.3672   23.0192 H   0  0  0  0  0  0  0  0  0  0  0  0
   -1.4197  -15.8041   24.5979 H   0  0  0  0  0  0  0  0  0  0  0  0
   -2.5433  -15.0650   24.3511 H   0  0  0  0  0  0  0  0  0  0  0  0
   -2.8609  -16.5215   25.8387 H   0  0  0  0  0  0  0  0  0  0  0  0
   -3.6720  -17.9840   27.3901 H   0  0  0  0  0  0  0  0  0  0  0  0
   -4.7096  -12.7487   30.7427 H   0  0  0  0  0  0  0  0  0  0  0  0
   -3.4790  -12.2472   28.3883 H   0  0  0  0  0  0  0  0  0  0  0  0
    3.5373  -12.5845   21.7521 H   0  0  0  0  0  0  0  0  0  0  0  0
  1  2  2  0
  2  3  1  0
  3  4  1  0
  4  5  1  0
  5  6  1  0
  6  7  1  0
  7  8  1  0
  8  9  1  0
  9 10  1  0
 10 11  2  0
 11 12  1  0
 12 13  2  0
 13 14  1  0
 14 15  2  0
 15 16  1  0
 16 17  2  0
 17 18  1  0
  3 19  1  0
 19 20  2  0
 20  1  1  0
  9  5  1  0
 18 10  1  0
 18 14  1  0
  1 21  1  0
  2 22  1  0
  4 23  1  0
  4 24  1  0
  5 25  1  0
  6 26  1  0
  6 27  1  0
  7 28  1  0
  7 29  1  0
  8 30  1  0
  8 31  1  0
 11 32  1  0
 12 33  1  0
 16 34  1  0
 17 35  1  0
 19 36  1  0
M  END
>  <Energy>  (415) 
785.3193998408176

>  <compound_id>  (415) 
8666

>  <target_id>  (415) 
1

>  <reference_id>  (415) 
114

>  <inspiration_ids>  (415) 
[114, 107]

>  <energy_score>  (415) 
683.3693116353506

>  <distance_score>  (415) 
13.172306742118046

>  <path>  (415) 
/opt/xchem-fragalysis-2/maxwin/BulkDock/SCRATCH/511022/C8666-P114/C8666-P114.minimised.mol

>  <scratch_subdir>  (415) 
/opt/xchem-fragalysis-2/maxwin/BulkDock/SCRATCH/511022/C8666-P114

>  <fragmenstein_runtime>  (415) 
26.41554355621338

>  <fragmenstein_outcome>  (415) 
too moved

>  <fragmenstein_mode>  (415) 
expansion

>  <fragmenstein_error>  (415) 


$$$$
C8666-P107
     RDKit          3D

 36 39  0  0  0  0  0  0  0  0999 V2000
    5.4359  -12.2955   19.8593 C   0  0  0  0  0  0  0  0  0  0  0  0
    4.4543  -13.1242   19.4551 C   0  0  0  0  0  0  0  0  0  0  0  0
    3.5351  -13.3096   20.5695 N   0  0  0  0  0  0  0  0  0  0  0  0
    2.2669  -14.6222   20.3999 C   0  0  0  0  0  0  0  0  0  0  0  0
    0.7028  -15.7838   20.9606 C   0  0  0  0  0  0  0  0  0  0  0  0
   -0.3242  -16.4130   19.9618 C   0  0  0  0  0  0  0  0  0  0  0  0
   -1.2781  -17.5147   20.1701 C   0  0  0  0  0  0  0  0  0  0  0  0
   -0.6163  -17.6248   21.4462 C   0  0  0  0  0  0  0  0  0  0  0  0
   -0.5394  -15.7953   22.1908 N   0  0  0  0  0  0  0  0  0  0  0  0
   -1.5114  -15.4829   23.9344 C   0  0  0  0  0  0  0  0  0  0  0  0
   -1.6989  -14.6045   25.0766 C   0  0  0  0  0  0  0  0  0  0  0  0
   -2.2767  -14.8322   26.6770 C   0  0  0  0  0  0  0  0  0  0  0  0
   -3.1660  -15.5710   27.1964 N   0  0  0  0  0  0  0  0  0  0  0  0
   -3.4391  -16.4585   26.2681 C   0  0  0  0  0  0  0  0  0  0  0  0
   -4.1205  -17.5648   26.5302 N   0  0  0  0  0  0  0  0  0  0  0  0
   -3.1547  -18.5034   26.5697 C   0  0  0  0  0  0  0  0  0  0  0  0
   -2.0735  -18.0471   25.8482 C   0  0  0  0  0  0  0  0  0  0  0  0
   -2.4722  -16.6539   25.0312 N   0  0  0  0  0  0  0  0  0  0  0  0
    3.9947  -12.4544   21.4707 C   0  0  0  0  0  0  0  0  0  0  0  0
    5.0741  -11.7850   21.0287 N   0  0  0  0  0  0  0  0  0  0  0  0
    6.1749  -11.7682   19.3171 H   0  0  0  0  0  0  0  0  0  0  0  0
    4.1400  -13.6887   18.5970 H   0  0  0  0  0  0  0  0  0  0  0  0
    2.8022  -14.6887   21.3267 H   0  0  0  0  0  0  0  0  0  0  0  0
    2.5391  -14.8513   19.3483 H   0  0  0  0  0  0  0  0  0  0  0  0
    1.0706  -16.7268   20.8191 H   0  0  0  0  0  0  0  0  0  0  0  0
   -1.0313  -15.6843   19.5143 H   0  0  0  0  0  0  0  0  0  0  0  0
    0.4171  -17.0644   19.4314 H   0  0  0  0  0  0  0  0  0  0  0  0
   -1.1449  -18.3836   19.5161 H   0  0  0  0  0  0  0  0  0  0  0  0
   -2.3263  -17.2098   20.1253 H   0  0  0  0  0  0  0  0  0  0  0  0
    0.3323  -18.1269   21.2700 H   0  0  0  0  0  0  0  0  0  0  0  0
   -0.9854  -18.5228   21.9721 H   0  0  0  0  0  0  0  0  0  0  0  0
   -1.2726  -13.6334   25.2188 H   0  0  0  0  0  0  0  0  0  0  0  0
   -1.5710  -14.5308   27.4603 H   0  0  0  0  0  0  0  0  0  0  0  0
   -3.2616  -19.4243   27.1279 H   0  0  0  0  0  0  0  0  0  0  0  0
   -1.0503  -18.3803   25.8435 H   0  0  0  0  0  0  0  0  0  0  0  0
    3.4999  -12.2965   22.4259 H   0  0  0  0  0  0  0  0  0  0  0  0
  1  2  2  0
  2  3  1  0
  3  4  1  0
  4  5  1  0
  5  6  1  0
  6  7  1  0
  7  8  1  0
  8  9  1  0
  9 10  1  0
 10 11  2  0
 11 12  1  0
 12 13  2  0
 13 14  1  0
 14 15  2  0
 15 16  1  0
 16 17  2  0
 17 18  1  0
  3 19  1  0
 19 20  2  0
 20  1  1  0
  9  5  1  0
 18 10  1  0
 18 14  1  0
  1 21  1  0
  2 22  1  0
  4 23  1  0
  4 24  1  0
  5 25  1  0
  6 26  1  0
  6 27  1  0
  7 28  1  0
  7 29  1  0
  8 30  1  0
  8 31  1  0
 11 32  1  0
 12 33  1  0
 16 34  1  0
 17 35  1  0
 19 36  1  0
M  END
>  <Energy>  (416) 
932.08128468558289

>  <compound_id>  (416) 
8666

>  <target_id>  (416) 
1

>  <reference_id>  (416) 
107

>  <inspiration_ids>  (416) 
[114, 107]

>  <energy_score>  (416) 
830.1311964801328

>  <distance_score>  (416) 
13.546605016230215

>  <path>  (416) 
/opt/xchem-fragalysis-2/maxwin/BulkDock/SCRATCH/511022/C8666-P107/C8666-P107.minimised.mol

>  <scratch_subdir>  (416) 
/opt/xchem-fragalysis-2/maxwin/BulkDock/SCRATCH/511022/C8666-P107

>  <fragmenstein_runtime>  (416) 
28.555926084518433

>  <fragmenstein_outcome>  (416) 
too moved

>  <fragmenstein_mode>  (416) 
expansion

>  <fragmenstein_error>  (416) 


$$$$
C8669-P114
     RDKit          3D

 32 34  0  0  0  0  0  0  0  0999 V2000
   -2.8203   -9.8477   20.3647 C   0  0  0  0  0  0  0  0  0  0  0  0
   -1.4841   -9.2984   20.3415 N   0  0  0  0  0  0  0  0  0  0  0  0
   -0.9988   -8.5483   19.2916 C   0  0  0  0  0  0  0  0  0  0  0  0
    0.3052   -8.3023   19.6668 C   0  0  0  0  0  0  0  0  0  0  0  0
    0.5575   -8.7560   20.9422 N   0  0  0  0  0  0  0  0  0  0  0  0
   -0.3753   -9.6651   21.1474 C   0  0  0  0  0  0  0  0  0  0  0  0
   -0.2913  -10.7948   22.2092 C   0  0  0  0  0  0  0  0  0  0  0  0
   -0.2540  -12.7406   22.7035 C   0  0  0  0  0  0  0  0  0  0  0  0
   -0.6823  -14.1523   24.0425 N   0  0  0  0  0  0  0  0  0  0  0  0
   -1.5600  -14.3349   25.5133 C   0  0  0  0  0  0  0  0  0  0  0  0
   -2.3752  -13.3669   26.0350 C   0  0  0  0  0  0  0  0  0  0  0  0
   -3.6322  -13.7519   26.7640 C   0  0  0  0  0  0  0  0  0  0  0  0
   -4.0619  -14.9421   27.0077 N   0  0  0  0  0  0  0  0  0  0  0  0
   -3.1618  -15.9150   26.7392 C   0  0  0  0  0  0  0  0  0  0  0  0
   -3.2718  -17.1936   27.0441 N   0  0  0  0  0  0  0  0  0  0  0  0
   -1.9972  -17.6607   27.0354 C   0  0  0  0  0  0  0  0  0  0  0  0
   -1.1317  -16.6872   26.5886 C   0  0  0  0  0  0  0  0  0  0  0  0
   -1.9006  -15.6295   26.1368 N   0  0  0  0  0  0  0  0  0  0  0  0
   -2.7618  -10.9232   20.1817 H   0  0  0  0  0  0  0  0  0  0  0  0
   -3.2637   -9.6304   21.3390 H   0  0  0  0  0  0  0  0  0  0  0  0
   -3.4217   -9.3746   19.5838 H   0  0  0  0  0  0  0  0  0  0  0  0
   -1.5549   -8.3571   18.3867 H   0  0  0  0  0  0  0  0  0  0  0  0
    1.1022   -7.9170   19.0680 H   0  0  0  0  0  0  0  0  0  0  0  0
   -1.3452  -10.6982   21.9812 H   0  0  0  0  0  0  0  0  0  0  0  0
   -0.1084  -10.1383   22.9887 H   0  0  0  0  0  0  0  0  0  0  0  0
   -0.1403  -13.7230   22.1786 H   0  0  0  0  0  0  0  0  0  0  0  0
   -1.1785  -12.2774   21.6655 H   0  0  0  0  0  0  0  0  0  0  0  0
   -1.0849  -14.9011   23.4539 H   0  0  0  0  0  0  0  0  0  0  0  0
   -2.4040  -12.3325   25.7577 H   0  0  0  0  0  0  0  0  0  0  0  0
   -4.2800  -12.8980   27.0280 H   0  0  0  0  0  0  0  0  0  0  0  0
   -1.7523  -18.6449   27.4147 H   0  0  0  0  0  0  0  0  0  0  0  0
   -0.0570  -16.6284   26.6201 H   0  0  0  0  0  0  0  0  0  0  0  0
  1  2  1  0
  2  3  1  0
  3  4  2  0
  4  5  1  0
  5  6  2  0
  6  7  1  0
  7  8  1  0
  8  9  1  0
  9 10  1  0
 10 11  2  0
 11 12  1  0
 12 13  2  0
 13 14  1  0
 14 15  2  0
 15 16  1  0
 16 17  2  0
 17 18  1  0
  6  2  1  0
 18 10  1  0
 18 14  1  0
  1 19  1  0
  1 20  1  0
  1 21  1  0
  3 22  1  0
  4 23  1  0
  7 24  1  0
  7 25  1  0
  8 26  1  0
  8 27  1  0
  9 28  1  0
 11 29  1  0
 12 30  1  0
 16 31  1  0
 17 32  1  0
M  END
>  <Energy>  (417) 
488.01487830006749

>  <compound_id>  (417) 
8669

>  <target_id>  (417) 
1

>  <reference_id>  (417) 
114

>  <inspiration_ids>  (417) 
[114, 107]

>  <energy_score>  (417) 
399.9654222601132

>  <distance_score>  (417) 
14.12837543554186

>  <path>  (417) 
/opt/xchem-fragalysis-2/maxwin/BulkDock/SCRATCH/511022/C8669-P114/C8669-P114.minimised.mol

>  <scratch_subdir>  (417) 
/opt/xchem-fragalysis-2/maxwin/BulkDock/SCRATCH/511022/C8669-P114

>  <fragmenstein_runtime>  (417) 
14.381131172180176

>  <fragmenstein_outcome>  (417) 
too moved

>  <fragmenstein_mode>  (417) 
expansion

>  <fragmenstein_error>  (417) 


$$$$
C8669-P107
     RDKit          3D

 32 34  0  0  0  0  0  0  0  0999 V2000
   -1.0210   -8.5202   18.8347 C   0  0  0  0  0  0  0  0  0  0  0  0
   -2.0812   -9.4029   18.4592 N   0  0  0  0  0  0  0  0  0  0  0  0
   -2.9281   -8.9751   17.4600 C   0  0  0  0  0  0  0  0  0  0  0  0
   -3.8792   -9.9409   17.3677 C   0  0  0  0  0  0  0  0  0  0  0  0
   -3.5982  -10.9604   18.2270 N   0  0  0  0  0  0  0  0  0  0  0  0
   -2.5283  -10.6387   18.9387 C   0  0  0  0  0  0  0  0  0  0  0  0
   -2.0507  -11.5894   20.1606 C   0  0  0  0  0  0  0  0  0  0  0  0
   -2.4326  -13.1300   19.8719 C   0  0  0  0  0  0  0  0  0  0  0  0
   -2.3531  -14.9711   20.3377 N   0  0  0  0  0  0  0  0  0  0  0  0
   -3.4564  -16.3535   20.2605 C   0  0  0  0  0  0  0  0  0  0  0  0
   -4.8288  -16.3563   20.4283 C   0  0  0  0  0  0  0  0  0  0  0  0
   -5.6259  -17.5789   20.7136 C   0  0  0  0  0  0  0  0  0  0  0  0
   -5.1614  -18.7625   20.8759 N   0  0  0  0  0  0  0  0  0  0  0  0
   -3.8235  -18.8609   20.6784 C   0  0  0  0  0  0  0  0  0  0  0  0
   -3.1168  -19.9573   20.8521 N   0  0  0  0  0  0  0  0  0  0  0  0
   -1.8476  -19.6396   20.4907 C   0  0  0  0  0  0  0  0  0  0  0  0
   -1.7407  -18.3090   20.1587 C   0  0  0  0  0  0  0  0  0  0  0  0
   -2.9912  -17.7508   20.3047 N   0  0  0  0  0  0  0  0  0  0  0  0
   -1.2860   -7.5310   18.4630 H   0  0  0  0  0  0  0  0  0  0  0  0
   -0.8692   -8.5688   19.9130 H   0  0  0  0  0  0  0  0  0  0  0  0
   -0.1143   -8.6953   18.2643 H   0  0  0  0  0  0  0  0  0  0  0  0
   -2.8052   -8.0324   16.9438 H   0  0  0  0  0  0  0  0  0  0  0  0
   -4.7455   -9.9725   16.7199 H   0  0  0  0  0  0  0  0  0  0  0  0
   -2.6366  -11.1881   20.9908 H   0  0  0  0  0  0  0  0  0  0  0  0
   -1.0530  -11.3723   20.4267 H   0  0  0  0  0  0  0  0  0  0  0  0
   -2.1927  -13.1714   18.7935 H   0  0  0  0  0  0  0  0  0  0  0  0
   -3.4375  -12.8042   20.1425 H   0  0  0  0  0  0  0  0  0  0  0  0
   -1.6089  -15.3746   19.7639 H   0  0  0  0  0  0  0  0  0  0  0  0
   -5.5055  -15.5206   20.4351 H   0  0  0  0  0  0  0  0  0  0  0  0
   -6.7108  -17.4112   20.8244 H   0  0  0  0  0  0  0  0  0  0  0  0
   -1.0538  -20.3759   20.5129 H   0  0  0  0  0  0  0  0  0  0  0  0
   -0.8822  -17.7101   19.9159 H   0  0  0  0  0  0  0  0  0  0  0  0
  1  2  1  0
  2  3  1  0
  3  4  2  0
  4  5  1  0
  5  6  2  0
  6  7  1  0
  7  8  1  0
  8  9  1  0
  9 10  1  0
 10 11  2  0
 11 12  1  0
 12 13  2  0
 13 14  1  0
 14 15  2  0
 15 16  1  0
 16 17  2  0
 17 18  1  0
  6  2  1  0
 18 10  1  0
 18 14  1  0
  1 19  1  0
  1 20  1  0
  1 21  1  0
  3 22  1  0
  4 23  1  0
  7 24  1  0
  7 25  1  0
  8 26  1  0
  8 27  1  0
  9 28  1  0
 11 29  1  0
 12 30  1  0
 16 31  1  0
 17 32  1  0
M  END
>  <Energy>  (418) 
239.79526398551948

>  <compound_id>  (418) 
8669

>  <target_id>  (418) 
1

>  <reference_id>  (418) 
107

>  <inspiration_ids>  (418) 
[114, 107]

>  <energy_score>  (418) 
151.74580794557028

>  <distance_score>  (418) 
15.804187738399184

>  <path>  (418) 
/opt/xchem-fragalysis-2/maxwin/BulkDock/SCRATCH/511022/C8669-P107/C8669-P107.minimised.mol

>  <scratch_subdir>  (418) 
/opt/xchem-fragalysis-2/maxwin/BulkDock/SCRATCH/511022/C8669-P107

>  <fragmenstein_runtime>  (418) 
17.50415277481079

>  <fragmenstein_outcome>  (418) 
too moved

>  <fragmenstein_mode>  (418) 
expansion

>  <fragmenstein_error>  (418) 


$$$$
C8670-P114
     RDKit          3D

 33 36  0  0  0  0  0  0  0  0999 V2000
    6.3479  -15.9697   27.5389 C   0  0  0  0  0  0  0  0  0  0  0  0
    6.8771  -14.7498   27.8985 C   0  0  0  0  0  0  0  0  0  0  0  0
    5.6828  -13.6928   28.5193 S   0  0  0  0  0  0  0  0  0  0  0  0
    4.4491  -14.8485   28.2833 C   0  0  0  0  0  0  0  0  0  0  0  0
    2.9248  -14.6489   28.6438 C   0  0  0  0  0  0  0  0  0  0  0  0
    2.3733  -13.4876   29.1139 C   0  0  0  0  0  0  0  0  0  0  0  0
    1.0565  -13.7887   29.3290 N   0  0  0  0  0  0  0  0  0  0  0  0
    0.8029  -15.1250   29.0273 C   0  0  0  0  0  0  0  0  0  0  0  0
   -0.5676  -15.7903   29.4914 C   0  0  0  0  0  0  0  0  0  0  0  0
   -1.3342  -16.8754   28.7774 N   0  0  0  0  0  0  0  0  0  0  0  0
   -2.7215  -17.2173   28.9195 C   0  0  0  0  0  0  0  0  0  0  0  0
   -3.6398  -16.4142   29.4984 C   0  0  0  0  0  0  0  0  0  0  0  0
   -5.0758  -16.8280   29.4540 C   0  0  0  0  0  0  0  0  0  0  0  0
   -5.5644  -17.8728   28.8735 N   0  0  0  0  0  0  0  0  0  0  0  0
   -4.6417  -18.7174   28.3398 C   0  0  0  0  0  0  0  0  0  0  0  0
   -4.8710  -19.8596   27.7192 N   0  0  0  0  0  0  0  0  0  0  0  0
   -3.6429  -20.3820   27.4429 C   0  0  0  0  0  0  0  0  0  0  0  0
   -2.6391  -19.5251   27.8278 C   0  0  0  0  0  0  0  0  0  0  0  0
   -3.2608  -18.4326   28.3849 N   0  0  0  0  0  0  0  0  0  0  0  0
    1.9441  -15.6547   28.5956 N   0  0  0  0  0  0  0  0  0  0  0  0
    4.9445  -16.0323   27.7800 C   0  0  0  0  0  0  0  0  0  0  0  0
    6.9369  -16.7785   27.1238 H   0  0  0  0  0  0  0  0  0  0  0  0
    7.9081  -14.4307   27.8308 H   0  0  0  0  0  0  0  0  0  0  0  0
    2.7834  -12.5186   29.3496 H   0  0  0  0  0  0  0  0  0  0  0  0
    0.3945  -13.1737   29.7751 H   0  0  0  0  0  0  0  0  0  0  0  0
   -0.3649  -16.1728   30.5003 H   0  0  0  0  0  0  0  0  0  0  0  0
   -1.2542  -14.9437   29.6140 H   0  0  0  0  0  0  0  0  0  0  0  0
   -0.7314  -17.6241   28.4420 H   0  0  0  0  0  0  0  0  0  0  0  0
   -3.4228  -15.4544   29.9404 H   0  0  0  0  0  0  0  0  0  0  0  0
   -5.7706  -16.1249   29.9435 H   0  0  0  0  0  0  0  0  0  0  0  0
   -3.5381  -21.3460   26.9619 H   0  0  0  0  0  0  0  0  0  0  0  0
   -1.5655  -19.5979   27.7518 H   0  0  0  0  0  0  0  0  0  0  0  0
    4.3206  -16.8947   27.5767 H   0  0  0  0  0  0  0  0  0  0  0  0
  1  2  2  0
  2  3  1  0
  3  4  1  0
  4  5  1  0
  5  6  2  0
  6  7  1  0
  7  8  1  0
  8  9  1  0
  9 10  1  0
 10 11  1  0
 11 12  2  0
 12 13  1  0
 13 14  2  0
 14 15  1  0
 15 16  2  0
 16 17  1  0
 17 18  2  0
 18 19  1  0
  8 20  2  0
  4 21  2  0
 21  1  1  0
 20  5  1  0
 19 11  1  0
 19 15  1  0
  1 22  1  0
  2 23  1  0
  6 24  1  0
  7 25  1  0
  9 26  1  0
  9 27  1  0
 10 28  1  0
 12 29  1  0
 13 30  1  0
 17 31  1  0
 18 32  1  0
 21 33  1  0
M  END
>  <Energy>  (419) 
76.185458530854461

>  <compound_id>  (419) 
8670

>  <target_id>  (419) 
1

>  <reference_id>  (419) 
114

>  <inspiration_ids>  (419) 
[114, 107]

>  <energy_score>  (419) 
-34.09252219866784

>  <distance_score>  (419) 
15.063357961228432

>  <path>  (419) 
/opt/xchem-fragalysis-2/maxwin/BulkDock/SCRATCH/511022/C8670-P114/C8670-P114.minimised.mol

>  <scratch_subdir>  (419) 
/opt/xchem-fragalysis-2/maxwin/BulkDock/SCRATCH/511022/C8670-P114

>  <fragmenstein_runtime>  (419) 
17.567042589187622

>  <fragmenstein_outcome>  (419) 
too moved

>  <fragmenstein_mode>  (419) 
expansion

>  <fragmenstein_error>  (419) 


$$$$
C8670-P107
     RDKit          3D

 33 36  0  0  0  0  0  0  0  0999 V2000
   -1.8501   -7.5760   20.7268 C   0  0  0  0  0  0  0  0  0  0  0  0
   -1.4614   -6.5675   21.5815 C   0  0  0  0  0  0  0  0  0  0  0  0
   -2.0722   -6.7987   23.1641 S   0  0  0  0  0  0  0  0  0  0  0  0
   -2.8252   -8.2620   22.7192 C   0  0  0  0  0  0  0  0  0  0  0  0
   -3.5946   -9.2170   23.7120 C   0  0  0  0  0  0  0  0  0  0  0  0
   -3.6866   -9.0701   25.0715 C   0  0  0  0  0  0  0  0  0  0  0  0
   -4.3306  -10.2019   25.5322 N   0  0  0  0  0  0  0  0  0  0  0  0
   -4.6664  -11.0046   24.4617 C   0  0  0  0  0  0  0  0  0  0  0  0
   -5.6090  -12.2852   24.5484 C   0  0  0  0  0  0  0  0  0  0  0  0
   -5.8158  -13.1978   25.7707 N   0  0  0  0  0  0  0  0  0  0  0  0
   -6.8545  -14.2063   25.8796 C   0  0  0  0  0  0  0  0  0  0  0  0
   -7.8692  -14.3129   24.9941 C   0  0  0  0  0  0  0  0  0  0  0  0
   -8.9083  -15.3557   25.2210 C   0  0  0  0  0  0  0  0  0  0  0  0
   -8.9591  -16.2006   26.1955 N   0  0  0  0  0  0  0  0  0  0  0  0
   -7.9375  -16.1195   27.0911 C   0  0  0  0  0  0  0  0  0  0  0  0
   -7.7519  -16.8809   28.1492 N   0  0  0  0  0  0  0  0  0  0  0  0
   -6.6101  -16.4253   28.7429 C   0  0  0  0  0  0  0  0  0  0  0  0
   -6.0750  -15.3694   28.0373 C   0  0  0  0  0  0  0  0  0  0  0  0
   -6.9072  -15.1611   26.9591 N   0  0  0  0  0  0  0  0  0  0  0  0
   -4.1815  -10.4287   23.3491 N   0  0  0  0  0  0  0  0  0  0  0  0
   -2.6593   -8.5500   21.3829 C   0  0  0  0  0  0  0  0  0  0  0  0
   -1.5552   -7.6252   19.6851 H   0  0  0  0  0  0  0  0  0  0  0  0
   -0.8412   -5.7105   21.3566 H   0  0  0  0  0  0  0  0  0  0  0  0
   -3.3527   -8.2972   25.7497 H   0  0  0  0  0  0  0  0  0  0  0  0
   -4.5998  -10.3813   26.4907 H   0  0  0  0  0  0  0  0  0  0  0  0
   -6.5971  -11.8878   24.2837 H   0  0  0  0  0  0  0  0  0  0  0  0
   -5.2944  -12.9400   23.7268 H   0  0  0  0  0  0  0  0  0  0  0  0
   -4.9319  -13.5335   26.1532 H   0  0  0  0  0  0  0  0  0  0  0  0
   -7.9994  -13.6773   24.1306 H   0  0  0  0  0  0  0  0  0  0  0  0
   -9.7090  -15.3778   24.4625 H   0  0  0  0  0  0  0  0  0  0  0  0
   -6.2310  -16.8827   29.6499 H   0  0  0  0  0  0  0  0  0  0  0  0
   -5.1985  -14.7638   28.2074 H   0  0  0  0  0  0  0  0  0  0  0  0
   -3.0597   -9.4346   20.9026 H   0  0  0  0  0  0  0  0  0  0  0  0
  1  2  2  0
  2  3  1  0
  3  4  1  0
  4  5  1  0
  5  6  2  0
  6  7  1  0
  7  8  1  0
  8  9  1  0
  9 10  1  0
 10 11  1  0
 11 12  2  0
 12 13  1  0
 13 14  2  0
 14 15  1  0
 15 16  2  0
 16 17  1  0
 17 18  2  0
 18 19  1  0
  8 20  2  0
  4 21  2  0
 21  1  1  0
 20  5  1  0
 19 11  1  0
 19 15  1  0
  1 22  1  0
  2 23  1  0
  6 24  1  0
  7 25  1  0
  9 26  1  0
  9 27  1  0
 10 28  1  0
 12 29  1  0
 13 30  1  0
 17 31  1  0
 18 32  1  0
 21 33  1  0
M  END
>  <Energy>  (420) 
73.656662307559387

>  <compound_id>  (420) 
8670

>  <target_id>  (420) 
1

>  <reference_id>  (420) 
107

>  <inspiration_ids>  (420) 
[114, 107]

>  <energy_score>  (420) 
-36.621318421960325

>  <distance_score>  (420) 
14.617346049536884

>  <path>  (420) 
/opt/xchem-fragalysis-2/maxwin/BulkDock/SCRATCH/511022/C8670-P107/C8670-P107.minimised.mol

>  <scratch_subdir>  (420) 
/opt/xchem-fragalysis-2/maxwin/BulkDock/SCRATCH/511022/C8670-P107

>  <fragmenstein_runtime>  (420) 
18.046169996261597

>  <fragmenstein_outcome>  (420) 
too moved

>  <fragmenstein_mode>  (420) 
expansion

>  <fragmenstein_error>  (420) 


$$$$
C8668-P114
     RDKit          3D

 36 39  0  0  0  0  0  0  0  0999 V2000
    2.8435  -12.0560   23.2068 C   0  0  0  0  0  0  0  0  0  0  0  0
    2.6945  -13.1020   24.0208 C   0  0  0  0  0  0  0  0  0  0  0  0
    3.2172  -14.1208   23.3975 C   0  0  0  0  0  0  0  0  0  0  0  0
    4.2568  -14.9018   24.8899 C   0  0  0  0  0  0  0  0  0  0  0  0
    4.0649  -15.3211   26.7348 N   0  0  0  0  0  0  0  0  0  0  0  0
    3.2773  -16.5682   27.6485 C   0  0  0  0  0  0  0  0  0  0  0  0
    2.7816  -17.7437   27.1302 C   0  0  0  0  0  0  0  0  0  0  0  0
    1.8051  -18.6035   27.8626 C   0  0  0  0  0  0  0  0  0  0  0  0
    1.2692  -18.3348   28.9997 N   0  0  0  0  0  0  0  0  0  0  0  0
    1.7647  -17.2203   29.5984 C   0  0  0  0  0  0  0  0  0  0  0  0
    1.4097  -16.7635   30.7815 N   0  0  0  0  0  0  0  0  0  0  0  0
    2.2743  -15.7511   31.0544 C   0  0  0  0  0  0  0  0  0  0  0  0
    3.1366  -15.5240   30.0025 C   0  0  0  0  0  0  0  0  0  0  0  0
    2.7815  -16.3995   29.0054 N   0  0  0  0  0  0  0  0  0  0  0  0
    3.5776  -13.4701   21.6493 C   0  0  0  0  0  0  0  0  0  0  0  0
    4.6185  -12.5172   21.1010 C   0  0  0  0  0  0  0  0  0  0  0  0
    6.5015  -12.3286   21.2573 C   0  0  0  0  0  0  0  0  0  0  0  0
    7.6694  -12.9639   20.8837 N   0  0  0  0  0  0  0  0  0  0  0  0
    8.9662  -12.9726   21.7913 C   0  0  0  0  0  0  0  0  0  0  0  0
    8.6627  -12.3918   23.0389 C   0  0  0  0  0  0  0  0  0  0  0  0
    7.1890  -11.8198   22.8291 N   0  0  0  0  0  0  0  0  0  0  0  0
    4.0367  -11.7278   22.1598 C   0  0  0  0  0  0  0  0  0  0  0  0
    1.8482  -11.6889   23.0794 H   0  0  0  0  0  0  0  0  0  0  0  0
    1.9568  -13.0985   24.7974 H   0  0  0  0  0  0  0  0  0  0  0  0
    4.9300  -14.1627   25.2795 H   0  0  0  0  0  0  0  0  0  0  0  0
    4.7617  -15.7547   24.4322 H   0  0  0  0  0  0  0  0  0  0  0  0
    3.8677  -14.4379   27.2151 H   0  0  0  0  0  0  0  0  0  0  0  0
    2.8860  -18.0727   26.1036 H   0  0  0  0  0  0  0  0  0  0  0  0
    1.4951  -19.5147   27.3234 H   0  0  0  0  0  0  0  0  0  0  0  0
    2.2394  -15.2256   32.0001 H   0  0  0  0  0  0  0  0  0  0  0  0
    3.9418  -14.8181   29.8678 H   0  0  0  0  0  0  0  0  0  0  0  0
    2.9464  -13.9105   20.8835 H   0  0  0  0  0  0  0  0  0  0  0  0
    9.8407  -13.4963   21.4246 H   0  0  0  0  0  0  0  0  0  0  0  0
    9.1225  -12.2187   24.0025 H   0  0  0  0  0  0  0  0  0  0  0  0
    6.6542  -11.2697   23.4909 H   0  0  0  0  0  0  0  0  0  0  0  0
    4.6727  -10.8976   22.4765 H   0  0  0  0  0  0  0  0  0  0  0  0
  1  2  2  0
  2  3  1  0
  3  4  1  0
  4  5  1  0
  5  6  1  0
  6  7  2  0
  7  8  1  0
  8  9  2  0
  9 10  1  0
 10 11  2  0
 11 12  1  0
 12 13  2  0
 13 14  1  0
  3 15  2  0
 15 16  1  0
 16 17  1  0
 17 18  2  0
 18 19  1  0
 19 20  2  0
 20 21  1  0
 16 22  2  0
 22  1  1  0
 14  6  1  0
 21 17  1  0
 14 10  1  0
  1 23  1  0
  2 24  1  0
  4 25  1  0
  4 26  1  0
  5 27  1  0
  7 28  1  0
  8 29  1  0
 12 30  1  0
 13 31  1  0
 15 32  1  0
 19 33  1  0
 20 34  1  0
 21 35  1  0
 22 36  1  0
M  END
>  <Energy>  (421) 
672.25223710395187

>  <compound_id>  (421) 
8668

>  <target_id>  (421) 
1

>  <reference_id>  (421) 
114

>  <inspiration_ids>  (421) 
[114, 107]

>  <energy_score>  (421) 
581.2598623133659

>  <distance_score>  (421) 
14.960394754902445

>  <path>  (421) 
/opt/xchem-fragalysis-2/maxwin/BulkDock/SCRATCH/511022/C8668-P114/C8668-P114.minimised.mol

>  <scratch_subdir>  (421) 
/opt/xchem-fragalysis-2/maxwin/BulkDock/SCRATCH/511022/C8668-P114

>  <fragmenstein_runtime>  (421) 
25.142033100128174

>  <fragmenstein_outcome>  (421) 
too moved

>  <fragmenstein_mode>  (421) 
expansion

>  <fragmenstein_error>  (421) 


$$$$
C8668-P107
     RDKit          3D

 36 39  0  0  0  0  0  0  0  0999 V2000
    1.9599  -16.4432   31.8435 C   0  0  0  0  0  0  0  0  0  0  0  0
    1.0150  -17.2365   31.1795 C   0  0  0  0  0  0  0  0  0  0  0  0
    1.0554  -17.3761   29.7916 C   0  0  0  0  0  0  0  0  0  0  0  0
    0.0391  -18.3135   29.0787 C   0  0  0  0  0  0  0  0  0  0  0  0
   -1.3587  -18.3566   29.6493 N   0  0  0  0  0  0  0  0  0  0  0  0
   -2.5042  -18.8967   28.9901 C   0  0  0  0  0  0  0  0  0  0  0  0
   -2.4430  -19.7981   27.9893 C   0  0  0  0  0  0  0  0  0  0  0  0
   -3.7179  -20.1507   27.3023 C   0  0  0  0  0  0  0  0  0  0  0  0
   -4.8868  -19.6390   27.5193 N   0  0  0  0  0  0  0  0  0  0  0  0
   -4.9499  -18.7524   28.5563 C   0  0  0  0  0  0  0  0  0  0  0  0
   -6.0082  -18.0946   28.9891 N   0  0  0  0  0  0  0  0  0  0  0  0
   -5.6168  -17.5089   30.1620 C   0  0  0  0  0  0  0  0  0  0  0  0
   -4.2705  -17.6875   30.3809 C   0  0  0  0  0  0  0  0  0  0  0  0
   -3.8186  -18.4520   29.3306 N   0  0  0  0  0  0  0  0  0  0  0  0
    2.1397  -16.7008   29.1045 C   0  0  0  0  0  0  0  0  0  0  0  0
    3.0889  -15.8344   29.7516 C   0  0  0  0  0  0  0  0  0  0  0  0
    4.1234  -14.9706   29.0222 C   0  0  0  0  0  0  0  0  0  0  0  0
    4.5415  -15.0563   27.7690 N   0  0  0  0  0  0  0  0  0  0  0  0
    5.5183  -14.0984   27.5841 C   0  0  0  0  0  0  0  0  0  0  0  0
    5.6527  -13.3248   28.7023 C   0  0  0  0  0  0  0  0  0  0  0  0
    4.7533  -13.8613   29.5876 N   0  0  0  0  0  0  0  0  0  0  0  0
    2.9688  -15.7522   31.1462 C   0  0  0  0  0  0  0  0  0  0  0  0
    1.9107  -16.3600   32.9282 H   0  0  0  0  0  0  0  0  0  0  0  0
    0.2615  -17.7612   31.7648 H   0  0  0  0  0  0  0  0  0  0  0  0
   -0.0294  -18.0151   28.0297 H   0  0  0  0  0  0  0  0  0  0  0  0
    0.4526  -19.3281   29.1121 H   0  0  0  0  0  0  0  0  0  0  0  0
   -1.5850  -17.4740   30.1075 H   0  0  0  0  0  0  0  0  0  0  0  0
   -1.5268  -20.2333   27.6187 H   0  0  0  0  0  0  0  0  0  0  0  0
   -3.6140  -20.9004   26.4998 H   0  0  0  0  0  0  0  0  0  0  0  0
   -6.3239  -16.9819   30.7886 H   0  0  0  0  0  0  0  0  0  0  0  0
   -3.6240  -17.3733   31.1849 H   0  0  0  0  0  0  0  0  0  0  0  0
    2.2334  -16.8335   28.0287 H   0  0  0  0  0  0  0  0  0  0  0  0
    6.0469  -14.0112   26.6516 H   0  0  0  0  0  0  0  0  0  0  0  0
    6.2821  -12.4825   28.9484 H   0  0  0  0  0  0  0  0  0  0  0  0
    4.5862  -13.5308   30.5251 H   0  0  0  0  0  0  0  0  0  0  0  0
    3.6593  -15.1547   31.7345 H   0  0  0  0  0  0  0  0  0  0  0  0
  1  2  2  0
  2  3  1  0
  3  4  1  0
  4  5  1  0
  5  6  1  0
  6  7  2  0
  7  8  1  0
  8  9  2  0
  9 10  1  0
 10 11  2  0
 11 12  1  0
 12 13  2  0
 13 14  1  0
  3 15  2  0
 15 16  1  0
 16 17  1  0
 17 18  2  0
 18 19  1  0
 19 20  2  0
 20 21  1  0
 16 22  2  0
 22  1  1  0
 14  6  1  0
 21 17  1  0
 14 10  1  0
  1 23  1  0
  2 24  1  0
  4 25  1  0
  4 26  1  0
  5 27  1  0
  7 28  1  0
  8 29  1  0
 12 30  1  0
 13 31  1  0
 15 32  1  0
 19 33  1  0
 20 34  1  0
 21 35  1  0
 22 36  1  0
M  END
>  <Energy>  (422) 
77.23600284006821

>  <compound_id>  (422) 
8668

>  <target_id>  (422) 
1

>  <reference_id>  (422) 
107

>  <inspiration_ids>  (422) 
[114, 107]

>  <energy_score>  (422) 
-13.75637195051479

>  <distance_score>  (422) 
13.739347326537915

>  <path>  (422) 
/opt/xchem-fragalysis-2/maxwin/BulkDock/SCRATCH/511022/C8668-P107/C8668-P107.minimised.mol

>  <scratch_subdir>  (422) 
/opt/xchem-fragalysis-2/maxwin/BulkDock/SCRATCH/511022/C8668-P107

>  <fragmenstein_runtime>  (422) 
19.494537353515625

>  <fragmenstein_outcome>  (422) 
too moved

>  <fragmenstein_mode>  (422) 
expansion

>  <fragmenstein_error>  (422) 


$$$$
C8671-P114
     RDKit          3D

 35 38  0  0  0  0  0  0  0  0999 V2000
    5.7556  -12.3393   20.1778 C   0  0  0  0  0  0  0  0  0  0  0  0
    5.6447  -11.8369   18.9503 C   0  0  0  0  0  0  0  0  0  0  0  0
    4.4631  -11.8470   17.7560 N   0  0  0  0  0  0  0  0  0  0  0  0
    3.2929  -12.0370   18.1059 C   0  0  0  0  0  0  0  0  0  0  0  0
    2.6545  -10.1424   17.9165 N   0  0  0  0  0  0  0  0  0  0  0  0
    1.6235   -9.0374   18.6213 C   0  0  0  0  0  0  0  0  0  0  0  0
    1.7470   -7.6655   18.5670 C   0  0  0  0  0  0  0  0  0  0  0  0
    2.7057   -7.4523   17.7504 N   0  0  0  0  0  0  0  0  0  0  0  0
    2.7064   -8.6456   17.1863 C   0  0  0  0  0  0  0  0  0  0  0  0
    3.7493  -13.2804   19.4825 C   0  0  0  0  0  0  0  0  0  0  0  0
    2.3510  -14.4283   20.5895 C   0  0  0  0  0  0  0  0  0  0  0  0
    0.7886  -14.9822   21.8953 N   0  0  0  0  0  0  0  0  0  0  0  0
   -0.2524  -14.2309   23.3249 C   0  0  0  0  0  0  0  0  0  0  0  0
    0.6673  -14.1280   24.3631 C   0  0  0  0  0  0  0  0  0  0  0  0
    0.4223  -13.8336   26.0383 C   0  0  0  0  0  0  0  0  0  0  0  0
   -0.6462  -13.9784   26.7175 N   0  0  0  0  0  0  0  0  0  0  0  0
   -1.5634  -14.6556   26.0249 C   0  0  0  0  0  0  0  0  0  0  0  0
   -2.5397  -15.2772   26.6667 N   0  0  0  0  0  0  0  0  0  0  0  0
   -3.3486  -15.7826   25.7515 C   0  0  0  0  0  0  0  0  0  0  0  0
   -2.8490  -15.4739   24.5260 C   0  0  0  0  0  0  0  0  0  0  0  0
   -1.4354  -14.9797   24.5330 N   0  0  0  0  0  0  0  0  0  0  0  0
    4.6201  -12.9042   20.4821 C   0  0  0  0  0  0  0  0  0  0  0  0
    6.4853  -12.1284   20.8894 H   0  0  0  0  0  0  0  0  0  0  0  0
    6.3401  -11.0224   18.7488 H   0  0  0  0  0  0  0  0  0  0  0  0
    0.6557   -9.1481   18.1721 H   0  0  0  0  0  0  0  0  0  0  0  0
    1.1125   -6.9024   18.9995 H   0  0  0  0  0  0  0  0  0  0  0  0
    2.6618   -8.4532   16.1060 H   0  0  0  0  0  0  0  0  0  0  0  0
    2.2929  -15.1476   19.8323 H   0  0  0  0  0  0  0  0  0  0  0  0
    3.0143  -14.4015   21.4747 H   0  0  0  0  0  0  0  0  0  0  0  0
    0.3379  -15.8681   21.5737 H   0  0  0  0  0  0  0  0  0  0  0  0
    1.6174  -13.5271   24.1821 H   0  0  0  0  0  0  0  0  0  0  0  0
    1.2987  -13.3869   26.5170 H   0  0  0  0  0  0  0  0  0  0  0  0
   -4.2909  -16.2497   26.0020 H   0  0  0  0  0  0  0  0  0  0  0  0
   -3.3582  -15.5688   23.6082 H   0  0  0  0  0  0  0  0  0  0  0  0
    4.1347  -12.7791   21.4281 H   0  0  0  0  0  0  0  0  0  0  0  0
  1  2  2  0
  2  3  1  0
  3  4  2  0
  4  5  1  0
  5  6  1  0
  6  7  2  0
  7  8  1  0
  8  9  2  0
  4 10  1  0
 10 11  1  0
 11 12  1  0
 12 13  1  0
 13 14  2  0
 14 15  1  0
 15 16  2  0
 16 17  1  0
 17 18  2  0
 18 19  1  0
 19 20  2  0
 20 21  1  0
 10 22  2  0
 22  1  1  0
  9  5  1  0
 21 13  1  0
 21 17  1  0
  1 23  1  0
  2 24  1  0
  6 25  1  0
  7 26  1  0
  9 27  1  0
 11 28  1  0
 11 29  1  0
 12 30  1  0
 14 31  1  0
 15 32  1  0
 19 33  1  0
 20 34  1  0
 22 35  1  0
M  END
>  <Energy>  (423) 
1201.0670658556492

>  <compound_id>  (423) 
8671

>  <target_id>  (423) 
1

>  <reference_id>  (423) 
114

>  <inspiration_ids>  (423) 
[114, 107]

>  <energy_score>  (423) 
1061.6959121188456

>  <distance_score>  (423) 
14.475174921795928

>  <path>  (423) 
/opt/xchem-fragalysis-2/maxwin/BulkDock/SCRATCH/511022/C8671-P114/C8671-P114.minimised.mol

>  <scratch_subdir>  (423) 
/opt/xchem-fragalysis-2/maxwin/BulkDock/SCRATCH/511022/C8671-P114

>  <fragmenstein_runtime>  (423) 
19.90942931175232

>  <fragmenstein_outcome>  (423) 
too moved

>  <fragmenstein_mode>  (423) 
expansion

>  <fragmenstein_error>  (423) 


$$$$
C8671-P107
     RDKit          3D

 35 38  0  0  0  0  0  0  0  0999 V2000
    4.7828  -12.7161   20.2971 C   0  0  0  0  0  0  0  0  0  0  0  0
    5.7887  -11.8599   20.4522 C   0  0  0  0  0  0  0  0  0  0  0  0
    5.9667  -11.1364   21.5972 N   0  0  0  0  0  0  0  0  0  0  0  0
    5.1482  -10.9952   22.7743 C   0  0  0  0  0  0  0  0  0  0  0  0
    6.3851  -10.8913   24.0343 N   0  0  0  0  0  0  0  0  0  0  0  0
    7.4878  -11.6858   24.3268 C   0  0  0  0  0  0  0  0  0  0  0  0
    8.4162  -11.0189   25.0948 C   0  0  0  0  0  0  0  0  0  0  0  0
    7.9960   -9.7895   25.4024 N   0  0  0  0  0  0  0  0  0  0  0  0
    6.8023   -9.7389   24.8669 C   0  0  0  0  0  0  0  0  0  0  0  0
    3.7388  -12.0657   22.6503 C   0  0  0  0  0  0  0  0  0  0  0  0
    2.7829  -13.1019   23.9985 C   0  0  0  0  0  0  0  0  0  0  0  0
    1.5624  -13.1942   25.4670 N   0  0  0  0  0  0  0  0  0  0  0  0
    1.0943  -13.8077   26.8755 C   0  0  0  0  0  0  0  0  0  0  0  0
    1.9148  -14.1406   27.9043 C   0  0  0  0  0  0  0  0  0  0  0  0
    1.3867  -14.9265   29.0603 C   0  0  0  0  0  0  0  0  0  0  0  0
    0.1805  -15.3350   29.2604 N   0  0  0  0  0  0  0  0  0  0  0  0
   -0.7163  -14.9573   28.3213 C   0  0  0  0  0  0  0  0  0  0  0  0
   -2.0015  -15.2650   28.3151 N   0  0  0  0  0  0  0  0  0  0  0  0
   -2.5263  -14.6257   27.2472 C   0  0  0  0  0  0  0  0  0  0  0  0
   -1.5478  -13.9290   26.5819 C   0  0  0  0  0  0  0  0  0  0  0  0
   -0.3334  -14.1701   27.1928 N   0  0  0  0  0  0  0  0  0  0  0  0
    3.8051  -12.8009   21.3442 C   0  0  0  0  0  0  0  0  0  0  0  0
    4.6458  -13.2382   19.3663 H   0  0  0  0  0  0  0  0  0  0  0  0
    6.4392  -11.5778   19.6561 H   0  0  0  0  0  0  0  0  0  0  0  0
    7.6538  -12.6545   23.9728 H   0  0  0  0  0  0  0  0  0  0  0  0
    9.3758  -11.3957   25.4245 H   0  0  0  0  0  0  0  0  0  0  0  0
    6.1440   -8.8862   25.0124 H   0  0  0  0  0  0  0  0  0  0  0  0
    2.3167  -12.1301   23.9816 H   0  0  0  0  0  0  0  0  0  0  0  0
    3.6016  -13.5857   24.4943 H   0  0  0  0  0  0  0  0  0  0  0  0
    0.7380  -13.4648   24.9343 H   0  0  0  0  0  0  0  0  0  0  0  0
    2.9872  -14.0161   27.8915 H   0  0  0  0  0  0  0  0  0  0  0  0
    2.1534  -15.1956   29.8071 H   0  0  0  0  0  0  0  0  0  0  0  0
   -3.5831  -14.6714   27.0208 H   0  0  0  0  0  0  0  0  0  0  0  0
   -1.6301  -13.2748   25.7512 H   0  0  0  0  0  0  0  0  0  0  0  0
    3.1747  -13.6446   21.1893 H   0  0  0  0  0  0  0  0  0  0  0  0
  1  2  2  0
  2  3  1  0
  3  4  2  0
  4  5  1  0
  5  6  1  0
  6  7  2  0
  7  8  1  0
  8  9  2  0
  4 10  1  0
 10 11  1  0
 11 12  1  0
 12 13  1  0
 13 14  2  0
 14 15  1  0
 15 16  2  0
 16 17  1  0
 17 18  2  0
 18 19  1  0
 19 20  2  0
 20 21  1  0
 10 22  2  0
 22  1  1  0
  9  5  1  0
 21 13  1  0
 21 17  1  0
  1 23  1  0
  2 24  1  0
  6 25  1  0
  7 26  1  0
  9 27  1  0
 11 28  1  0
 11 29  1  0
 12 30  1  0
 14 31  1  0
 15 32  1  0
 19 33  1  0
 20 34  1  0
 22 35  1  0
M  END
>  <Energy>  (424) 
481.56084707283748

>  <compound_id>  (424) 
8671

>  <target_id>  (424) 
1

>  <reference_id>  (424) 
107

>  <inspiration_ids>  (424) 
[114, 107]

>  <energy_score>  (424) 
342.1896933360424

>  <distance_score>  (424) 
14.910756970398285

>  <path>  (424) 
/opt/xchem-fragalysis-2/maxwin/BulkDock/SCRATCH/511022/C8671-P107/C8671-P107.minimised.mol

>  <scratch_subdir>  (424) 
/opt/xchem-fragalysis-2/maxwin/BulkDock/SCRATCH/511022/C8671-P107

>  <fragmenstein_runtime>  (424) 
24.192296266555786

>  <fragmenstein_outcome>  (424) 
too moved

>  <fragmenstein_mode>  (424) 
expansion

>  <fragmenstein_error>  (424) 


$$$$
C8672-P114
     RDKit          3D

 35 37  0  0  0  0  0  0  0  0999 V2000
   -1.8298   -9.2601   20.2310 C   0  0  0  0  0  0  0  0  0  0  0  0
   -1.6367  -10.5263   20.7570 C   0  0  0  0  0  0  0  0  0  0  0  0
   -2.0025  -11.4453   19.8064 N   0  0  0  0  0  0  0  0  0  0  0  0
   -2.4027  -12.8744   19.8224 C   0  0  0  0  0  0  0  0  0  0  0  0
   -2.1633  -14.7709   20.1829 C   0  0  0  0  0  0  0  0  0  0  0  0
   -2.9371  -16.4419   19.9734 C   0  0  0  0  0  0  0  0  0  0  0  0
   -4.2611  -16.9866   20.6740 C   0  0  0  0  0  0  0  0  0  0  0  0
   -4.4413  -18.4068   21.1721 N   0  0  0  0  0  0  0  0  0  0  0  0
   -5.7482  -18.8979   21.5197 C   0  0  0  0  0  0  0  0  0  0  0  0
   -6.8292  -18.0946   21.6296 C   0  0  0  0  0  0  0  0  0  0  0  0
   -8.1612  -18.7322   21.7727 C   0  0  0  0  0  0  0  0  0  0  0  0
   -8.4022  -19.9979   21.8321 N   0  0  0  0  0  0  0  0  0  0  0  0
   -7.3017  -20.8022   21.8659 C   0  0  0  0  0  0  0  0  0  0  0  0
   -7.2675  -22.1001   22.0839 N   0  0  0  0  0  0  0  0  0  0  0  0
   -5.9442  -22.4423   22.1092 C   0  0  0  0  0  0  0  0  0  0  0  0
   -5.1459  -21.3429   21.8926 C   0  0  0  0  0  0  0  0  0  0  0  0
   -6.0038  -20.2811   21.7316 N   0  0  0  0  0  0  0  0  0  0  0  0
   -2.4973  -10.6245   18.7691 C   0  0  0  0  0  0  0  0  0  0  0  0
   -2.3662   -9.3357   18.9823 N   0  0  0  0  0  0  0  0  0  0  0  0
   -1.5579   -8.3130   20.6770 H   0  0  0  0  0  0  0  0  0  0  0  0
   -1.0915  -10.7713   21.6367 H   0  0  0  0  0  0  0  0  0  0  0  0
   -2.2369  -12.9740   18.7325 H   0  0  0  0  0  0  0  0  0  0  0  0
   -3.3936  -12.6036   20.1660 H   0  0  0  0  0  0  0  0  0  0  0  0
   -1.8691  -14.7403   21.1939 H   0  0  0  0  0  0  0  0  0  0  0  0
   -1.4592  -15.0765   19.4106 H   0  0  0  0  0  0  0  0  0  0  0  0
   -2.1194  -17.1416   20.2035 H   0  0  0  0  0  0  0  0  0  0  0  0
   -3.0559  -16.6221   18.8945 H   0  0  0  0  0  0  0  0  0  0  0  0
   -5.0523  -16.8514   19.9286 H   0  0  0  0  0  0  0  0  0  0  0  0
   -4.4753  -16.4237   21.5741 H   0  0  0  0  0  0  0  0  0  0  0  0
   -3.9052  -19.0912   20.6357 H   0  0  0  0  0  0  0  0  0  0  0  0
   -6.8154  -17.0220   21.5118 H   0  0  0  0  0  0  0  0  0  0  0  0
   -9.0118  -18.0304   21.7800 H   0  0  0  0  0  0  0  0  0  0  0  0
   -5.6352  -23.4651   22.2877 H   0  0  0  0  0  0  0  0  0  0  0  0
   -4.0737  -21.2244   21.8557 H   0  0  0  0  0  0  0  0  0  0  0  0
   -2.9808  -11.0592   17.9073 H   0  0  0  0  0  0  0  0  0  0  0  0
  1  2  2  0
  2  3  1  0
  3  4  1  0
  4  5  1  0
  5  6  1  0
  6  7  1  0
  7  8  1  0
  8  9  1  0
  9 10  2  0
 10 11  1  0
 11 12  2  0
 12 13  1  0
 13 14  2  0
 14 15  1  0
 15 16  2  0
 16 17  1  0
  3 18  1  0
 18 19  2  0
 19  1  1  0
 17  9  1  0
 17 13  1  0
  1 20  1  0
  2 21  1  0
  4 22  1  0
  4 23  1  0
  5 24  1  0
  5 25  1  0
  6 26  1  0
  6 27  1  0
  7 28  1  0
  7 29  1  0
  8 30  1  0
 10 31  1  0
 11 32  1  0
 15 33  1  0
 16 34  1  0
 18 35  1  0
M  END
>  <Energy>  (425) 
213.95010642196931

>  <compound_id>  (425) 
8672

>  <target_id>  (425) 
1

>  <reference_id>  (425) 
114

>  <inspiration_ids>  (425) 
[114, 107]

>  <energy_score>  (425) 
139.59832586143864

>  <distance_score>  (425) 
13.58195791821728

>  <path>  (425) 
/opt/xchem-fragalysis-2/maxwin/BulkDock/SCRATCH/511022/C8672-P114/C8672-P114.minimised.mol

>  <scratch_subdir>  (425) 
/opt/xchem-fragalysis-2/maxwin/BulkDock/SCRATCH/511022/C8672-P114

>  <fragmenstein_runtime>  (425) 
14.325470685958862

>  <fragmenstein_outcome>  (425) 
too moved

>  <fragmenstein_mode>  (425) 
expansion

>  <fragmenstein_error>  (425) 


$$$$
C8672-P107
     RDKit          3D

 35 37  0  0  0  0  0  0  0  0999 V2000
    5.3820  -13.5321   19.4668 C   0  0  0  0  0  0  0  0  0  0  0  0
    4.8212  -14.5536   18.6243 C   0  0  0  0  0  0  0  0  0  0  0  0
    3.5324  -14.1236   18.5350 N   0  0  0  0  0  0  0  0  0  0  0  0
    2.2736  -14.9117   18.7071 C   0  0  0  0  0  0  0  0  0  0  0  0
    1.3126  -15.7182   20.3561 C   0  0  0  0  0  0  0  0  0  0  0  0
   -0.1081  -15.9670   21.6922 C   0  0  0  0  0  0  0  0  0  0  0  0
   -1.2535  -15.0496   23.1317 C   0  0  0  0  0  0  0  0  0  0  0  0
   -2.3777  -15.5322   24.5302 N   0  0  0  0  0  0  0  0  0  0  0  0
   -3.4584  -16.4620   25.0340 C   0  0  0  0  0  0  0  0  0  0  0  0
   -3.2017  -17.6896   25.5722 C   0  0  0  0  0  0  0  0  0  0  0  0
   -4.3024  -18.5187   26.1378 C   0  0  0  0  0  0  0  0  0  0  0  0
   -5.5290  -18.1547   26.2897 N   0  0  0  0  0  0  0  0  0  0  0  0
   -5.7894  -16.8728   25.9192 C   0  0  0  0  0  0  0  0  0  0  0  0
   -6.9300  -16.2333   26.0795 N   0  0  0  0  0  0  0  0  0  0  0  0
   -6.7081  -14.9707   25.6217 C   0  0  0  0  0  0  0  0  0  0  0  0
   -5.4240  -14.8278   25.1473 C   0  0  0  0  0  0  0  0  0  0  0  0
   -4.8088  -16.0423   25.3102 N   0  0  0  0  0  0  0  0  0  0  0  0
    3.8149  -12.8065   18.4385 C   0  0  0  0  0  0  0  0  0  0  0  0
    4.8262  -12.4345   19.1965 N   0  0  0  0  0  0  0  0  0  0  0  0
    6.0756  -13.3830   20.2512 H   0  0  0  0  0  0  0  0  0  0  0  0
    4.9440  -15.6236   18.6763 H   0  0  0  0  0  0  0  0  0  0  0  0
    1.5949  -14.3220   18.0615 H   0  0  0  0  0  0  0  0  0  0  0  0
    2.5598  -15.7146   18.0394 H   0  0  0  0  0  0  0  0  0  0  0  0
    0.6485  -16.2396   19.6712 H   0  0  0  0  0  0  0  0  0  0  0  0
    1.9412  -14.9011   20.6905 H   0  0  0  0  0  0  0  0  0  0  0  0
    0.3834  -15.0412   21.9846 H   0  0  0  0  0  0  0  0  0  0  0  0
   -0.7764  -16.2914   20.8627 H   0  0  0  0  0  0  0  0  0  0  0  0
   -2.0240  -14.7685   22.4826 H   0  0  0  0  0  0  0  0  0  0  0  0
   -0.6189  -14.2823   23.6113 H   0  0  0  0  0  0  0  0  0  0  0  0
   -2.3413  -14.7686   25.2174 H   0  0  0  0  0  0  0  0  0  0  0  0
   -2.2245  -18.1355   25.6568 H   0  0  0  0  0  0  0  0  0  0  0  0
   -4.0072  -19.5382   26.4388 H   0  0  0  0  0  0  0  0  0  0  0  0
   -7.4842  -14.2163   25.6518 H   0  0  0  0  0  0  0  0  0  0  0  0
   -4.9107  -13.9793   24.7244 H   0  0  0  0  0  0  0  0  0  0  0  0
    3.3400  -12.1006   17.7801 H   0  0  0  0  0  0  0  0  0  0  0  0
  1  2  2  0
  2  3  1  0
  3  4  1  0
  4  5  1  0
  5  6  1  0
  6  7  1  0
  7  8  1  0
  8  9  1  0
  9 10  2  0
 10 11  1  0
 11 12  2  0
 12 13  1  0
 13 14  2  0
 14 15  1  0
 15 16  2  0
 16 17  1  0
  3 18  1  0
 18 19  2  0
 19  1  1  0
 17  9  1  0
 17 13  1  0
  1 20  1  0
  2 21  1  0
  4 22  1  0
  4 23  1  0
  5 24  1  0
  5 25  1  0
  6 26  1  0
  6 27  1  0
  7 28  1  0
  7 29  1  0
  8 30  1  0
 10 31  1  0
 11 32  1  0
 15 33  1  0
 16 34  1  0
 18 35  1  0
M  END
>  <Energy>  (426) 
536.72432003256245

>  <compound_id>  (426) 
8672

>  <target_id>  (426) 
1

>  <reference_id>  (426) 
107

>  <inspiration_ids>  (426) 
[114, 107]

>  <energy_score>  (426) 
462.37253947203715

>  <distance_score>  (426) 
12.47013293854946

>  <path>  (426) 
/opt/xchem-fragalysis-2/maxwin/BulkDock/SCRATCH/511022/C8672-P107/C8672-P107.minimised.mol

>  <scratch_subdir>  (426) 
/opt/xchem-fragalysis-2/maxwin/BulkDock/SCRATCH/511022/C8672-P107

>  <fragmenstein_runtime>  (426) 
15.77846622467041

>  <fragmenstein_outcome>  (426) 
too moved

>  <fragmenstein_mode>  (426) 
expansion

>  <fragmenstein_error>  (426) 


$$$$
C8673-P114
     RDKit          3D

 44 46  0  0  0  0  0  0  0  0999 V2000
    6.2216  -10.0803   30.1652 C   0  0  0  0  0  0  0  0  0  0  0  0
    6.8266  -11.0073   29.1186 C   0  0  0  0  0  0  0  0  0  0  0  0
    5.7255  -11.5965   28.2058 C   0  0  0  0  0  0  0  0  0  0  0  0
    6.0954  -12.5669   27.1556 N   0  0  0  0  0  0  0  0  0  0  0  0
    7.4542  -12.4903   26.7612 C   0  0  0  0  0  0  0  0  0  0  0  0
    7.3773  -12.0755   25.4844 C   0  0  0  0  0  0  0  0  0  0  0  0
    6.1077  -12.3423   25.0906 N   0  0  0  0  0  0  0  0  0  0  0  0
    5.3269  -13.1209   25.9581 C   0  0  0  0  0  0  0  0  0  0  0  0
    3.5049  -13.9604   25.5575 C   0  0  0  0  0  0  0  0  0  0  0  0
    1.3867  -13.5543   25.5967 C   0  0  0  0  0  0  0  0  0  0  0  0
   -0.4697  -14.1900   24.6660 C   0  0  0  0  0  0  0  0  0  0  0  0
   -2.1931  -14.9354   25.2692 N   0  0  0  0  0  0  0  0  0  0  0  0
   -3.3705  -15.3999   24.3957 C   0  0  0  0  0  0  0  0  0  0  0  0
   -2.9576  -15.0027   26.6561 C   0  0  0  0  0  0  0  0  0  0  0  0
   -3.7405  -13.9480   27.0070 C   0  0  0  0  0  0  0  0  0  0  0  0
   -4.8270  -14.1265   28.0065 C   0  0  0  0  0  0  0  0  0  0  0  0
   -5.2764  -15.2398   28.4744 N   0  0  0  0  0  0  0  0  0  0  0  0
   -4.6325  -16.3526   28.0417 C   0  0  0  0  0  0  0  0  0  0  0  0
   -4.9985  -17.5987   28.2665 N   0  0  0  0  0  0  0  0  0  0  0  0
   -4.0582  -18.3761   27.6743 C   0  0  0  0  0  0  0  0  0  0  0  0
   -3.1296  -17.6035   27.0171 C   0  0  0  0  0  0  0  0  0  0  0  0
   -3.4787  -16.2796   27.2154 N   0  0  0  0  0  0  0  0  0  0  0  0
    5.6840   -9.2521   29.6921 H   0  0  0  0  0  0  0  0  0  0  0  0
    7.0089   -9.6574   30.7971 H   0  0  0  0  0  0  0  0  0  0  0  0
    5.5220  -10.6216   30.8102 H   0  0  0  0  0  0  0  0  0  0  0  0
    7.3878  -11.7927   29.6330 H   0  0  0  0  0  0  0  0  0  0  0  0
    7.5452  -10.4320   28.5229 H   0  0  0  0  0  0  0  0  0  0  0  0
    5.0036  -12.0754   28.8463 H   0  0  0  0  0  0  0  0  0  0  0  0
    5.3079  -10.7256   27.6954 H   0  0  0  0  0  0  0  0  0  0  0  0
    8.2634  -12.4678   27.4775 H   0  0  0  0  0  0  0  0  0  0  0  0
    8.1218  -11.6475   24.8300 H   0  0  0  0  0  0  0  0  0  0  0  0
    3.7826  -14.4052   24.5892 H   0  0  0  0  0  0  0  0  0  0  0  0
    3.7195  -14.5578   26.4651 H   0  0  0  0  0  0  0  0  0  0  0  0
    1.2524  -13.9357   26.5812 H   0  0  0  0  0  0  0  0  0  0  0  0
    1.2910  -12.4984   25.8540 H   0  0  0  0  0  0  0  0  0  0  0  0
   -0.4611  -14.1155   23.5797 H   0  0  0  0  0  0  0  0  0  0  0  0
   -1.0826  -13.4544   25.2586 H   0  0  0  0  0  0  0  0  0  0  0  0
   -3.4899  -16.4875   24.4708 H   0  0  0  0  0  0  0  0  0  0  0  0
   -4.3205  -14.9768   24.7539 H   0  0  0  0  0  0  0  0  0  0  0  0
   -3.4054  -15.1075   23.3663 H   0  0  0  0  0  0  0  0  0  0  0  0
   -3.7017  -12.9941   26.4989 H   0  0  0  0  0  0  0  0  0  0  0  0
   -5.3034  -13.1880   28.3369 H   0  0  0  0  0  0  0  0  0  0  0  0
   -4.0925  -19.4556   27.7439 H   0  0  0  0  0  0  0  0  0  0  0  0
   -2.2655  -17.8961   26.4507 H   0  0  0  0  0  0  0  0  0  0  0  0
  1  2  1  0
  2  3  1  0
  3  4  1  0
  4  5  1  0
  5  6  2  0
  6  7  1  0
  7  8  2  0
  8  9  1  0
  9 10  1  0
 10 11  1  0
 11 12  1  0
 12 13  1  0
 12 14  1  0
 14 15  2  0
 15 16  1  0
 16 17  2  0
 17 18  1  0
 18 19  2  0
 19 20  1  0
 20 21  2  0
 21 22  1  0
  8  4  1  0
 22 14  1  0
 22 18  1  0
  1 23  1  0
  1 24  1  0
  1 25  1  0
  2 26  1  0
  2 27  1  0
  3 28  1  0
  3 29  1  0
  5 30  1  0
  6 31  1  0
  9 32  1  0
  9 33  1  0
 10 34  1  0
 10 35  1  0
 11 36  1  0
 11 37  1  0
 13 38  1  0
 13 39  1  0
 13 40  1  0
 15 41  1  0
 16 42  1  0
 20 43  1  0
 21 44  1  0
M  END
>  <Energy>  (427) 
625.27009390192916

>  <compound_id>  (427) 
8673

>  <target_id>  (427) 
1

>  <reference_id>  (427) 
114

>  <inspiration_ids>  (427) 
[114, 107]

>  <energy_score>  (427) 
537.7131709724981

>  <distance_score>  (427) 
13.440328935127132

>  <path>  (427) 
/opt/xchem-fragalysis-2/maxwin/BulkDock/SCRATCH/511022/C8673-P114/C8673-P114.minimised.mol

>  <scratch_subdir>  (427) 
/opt/xchem-fragalysis-2/maxwin/BulkDock/SCRATCH/511022/C8673-P114

>  <fragmenstein_runtime>  (427) 
43.94614028930664

>  <fragmenstein_outcome>  (427) 
too moved

>  <fragmenstein_mode>  (427) 
expansion

>  <fragmenstein_error>  (427) 


$$$$
C8673-P107
     RDKit          3D

 44 46  0  0  0  0  0  0  0  0999 V2000
    9.4664  -11.1909   17.7051 C   0  0  0  0  0  0  0  0  0  0  0  0
    8.1853  -10.5944   18.5586 C   0  0  0  0  0  0  0  0  0  0  0  0
    6.3231  -10.9971   18.9250 C   0  0  0  0  0  0  0  0  0  0  0  0
    5.5085  -11.6768   19.9059 N   0  0  0  0  0  0  0  0  0  0  0  0
    6.0050  -11.6721   21.0525 C   0  0  0  0  0  0  0  0  0  0  0  0
    6.6328  -12.7845   20.6810 C   0  0  0  0  0  0  0  0  0  0  0  0
    5.8008  -13.5383   19.8289 N   0  0  0  0  0  0  0  0  0  0  0  0
    4.7077  -12.8695   19.8751 C   0  0  0  0  0  0  0  0  0  0  0  0
    3.2975  -13.4594   20.8064 C   0  0  0  0  0  0  0  0  0  0  0  0
    2.1523  -14.9151   20.0328 C   0  0  0  0  0  0  0  0  0  0  0  0
    0.5679  -16.2458   20.3877 C   0  0  0  0  0  0  0  0  0  0  0  0
   -0.1035  -17.9451   20.1981 N   0  0  0  0  0  0  0  0  0  0  0  0
    0.1400  -18.6351   18.8806 C   0  0  0  0  0  0  0  0  0  0  0  0
   -1.5005  -18.3508   20.6721 C   0  0  0  0  0  0  0  0  0  0  0  0
   -2.6074  -17.8913   20.0342 C   0  0  0  0  0  0  0  0  0  0  0  0
   -3.9540  -18.2589   20.5657 C   0  0  0  0  0  0  0  0  0  0  0  0
   -4.2269  -19.0241   21.5705 N   0  0  0  0  0  0  0  0  0  0  0  0
   -3.1379  -19.5854   22.1680 C   0  0  0  0  0  0  0  0  0  0  0  0
   -3.1537  -20.4137   23.1981 N   0  0  0  0  0  0  0  0  0  0  0  0
   -1.8547  -20.7922   23.3726 C   0  0  0  0  0  0  0  0  0  0  0  0
   -1.0285  -20.1917   22.4488 C   0  0  0  0  0  0  0  0  0  0  0  0
   -1.8089  -19.3242   21.7143 N   0  0  0  0  0  0  0  0  0  0  0  0
    9.8565  -10.4613   16.9898 H   0  0  0  0  0  0  0  0  0  0  0  0
   10.3020  -11.5153   18.3264 H   0  0  0  0  0  0  0  0  0  0  0  0
    9.2446  -11.9491   16.9473 H   0  0  0  0  0  0  0  0  0  0  0  0
    7.9344  -10.3600   17.5481 H   0  0  0  0  0  0  0  0  0  0  0  0
    8.5071   -9.6979   19.0286 H   0  0  0  0  0  0  0  0  0  0  0  0
    5.6744  -10.2259   18.5935 H   0  0  0  0  0  0  0  0  0  0  0  0
    5.9669  -11.7086   18.2474 H   0  0  0  0  0  0  0  0  0  0  0  0
    6.0916  -11.0132   21.8827 H   0  0  0  0  0  0  0  0  0  0  0  0
    7.6384  -13.0864   20.9295 H   0  0  0  0  0  0  0  0  0  0  0  0
    3.2347  -12.6988   21.5953 H   0  0  0  0  0  0  0  0  0  0  0  0
    3.3802  -14.0864   21.6741 H   0  0  0  0  0  0  0  0  0  0  0  0
    2.4878  -14.9439   18.9617 H   0  0  0  0  0  0  0  0  0  0  0  0
    2.5661  -15.4288   20.7082 H   0  0  0  0  0  0  0  0  0  0  0  0
   -0.4039  -15.9741   19.9747 H   0  0  0  0  0  0  0  0  0  0  0  0
    0.2809  -16.1038   21.4165 H   0  0  0  0  0  0  0  0  0  0  0  0
    0.3126  -19.6998   19.0794 H   0  0  0  0  0  0  0  0  0  0  0  0
    0.9999  -18.2727   18.3187 H   0  0  0  0  0  0  0  0  0  0  0  0
   -0.7309  -18.5679   18.2211 H   0  0  0  0  0  0  0  0  0  0  0  0
   -2.5614  -17.1941   19.2118 H   0  0  0  0  0  0  0  0  0  0  0  0
   -4.7944  -17.7892   20.0279 H   0  0  0  0  0  0  0  0  0  0  0  0
   -1.5680  -21.4900   24.1473 H   0  0  0  0  0  0  0  0  0  0  0  0
    0.0361  -20.2450   22.2811 H   0  0  0  0  0  0  0  0  0  0  0  0
  1  2  1  0
  2  3  1  0
  3  4  1  0
  4  5  1  0
  5  6  2  0
  6  7  1  0
  7  8  2  0
  8  9  1  0
  9 10  1  0
 10 11  1  0
 11 12  1  0
 12 13  1  0
 12 14  1  0
 14 15  2  0
 15 16  1  0
 16 17  2  0
 17 18  1  0
 18 19  2  0
 19 20  1  0
 20 21  2  0
 21 22  1  0
  8  4  1  0
 22 14  1  0
 22 18  1  0
  1 23  1  0
  1 24  1  0
  1 25  1  0
  2 26  1  0
  2 27  1  0
  3 28  1  0
  3 29  1  0
  5 30  1  0
  6 31  1  0
  9 32  1  0
  9 33  1  0
 10 34  1  0
 10 35  1  0
 11 36  1  0
 11 37  1  0
 13 38  1  0
 13 39  1  0
 13 40  1  0
 15 41  1  0
 16 42  1  0
 20 43  1  0
 21 44  1  0
M  END
>  <Energy>  (428) 
625.51343955900916

>  <compound_id>  (428) 
8673

>  <target_id>  (428) 
1

>  <reference_id>  (428) 
107

>  <inspiration_ids>  (428) 
[114, 107]

>  <energy_score>  (428) 
537.9565166295827

>  <distance_score>  (428) 
13.750827210503294

>  <path>  (428) 
/opt/xchem-fragalysis-2/maxwin/BulkDock/SCRATCH/511022/C8673-P107/C8673-P107.minimised.mol

>  <scratch_subdir>  (428) 
/opt/xchem-fragalysis-2/maxwin/BulkDock/SCRATCH/511022/C8673-P107

>  <fragmenstein_runtime>  (428) 
24.705103635787964

>  <fragmenstein_outcome>  (428) 
too moved

>  <fragmenstein_mode>  (428) 
expansion

>  <fragmenstein_error>  (428) 


$$$$
C8671-P114
     RDKit          3D

 35 38  0  0  0  0  0  0  0  0999 V2000
    5.7556  -12.3393   20.1778 C   0  0  0  0  0  0  0  0  0  0  0  0
    5.6447  -11.8369   18.9503 C   0  0  0  0  0  0  0  0  0  0  0  0
    4.4631  -11.8470   17.7560 N   0  0  0  0  0  0  0  0  0  0  0  0
    3.2929  -12.0370   18.1059 C   0  0  0  0  0  0  0  0  0  0  0  0
    2.6545  -10.1424   17.9165 N   0  0  0  0  0  0  0  0  0  0  0  0
    1.6235   -9.0374   18.6213 C   0  0  0  0  0  0  0  0  0  0  0  0
    1.7470   -7.6655   18.5670 C   0  0  0  0  0  0  0  0  0  0  0  0
    2.7057   -7.4523   17.7504 N   0  0  0  0  0  0  0  0  0  0  0  0
    2.7064   -8.6456   17.1863 C   0  0  0  0  0  0  0  0  0  0  0  0
    3.7493  -13.2804   19.4825 C   0  0  0  0  0  0  0  0  0  0  0  0
    2.3510  -14.4283   20.5895 C   0  0  0  0  0  0  0  0  0  0  0  0
    0.7886  -14.9822   21.8953 N   0  0  0  0  0  0  0  0  0  0  0  0
   -0.2524  -14.2309   23.3249 C   0  0  0  0  0  0  0  0  0  0  0  0
    0.6673  -14.1280   24.3631 C   0  0  0  0  0  0  0  0  0  0  0  0
    0.4223  -13.8336   26.0383 C   0  0  0  0  0  0  0  0  0  0  0  0
   -0.6462  -13.9784   26.7175 N   0  0  0  0  0  0  0  0  0  0  0  0
   -1.5634  -14.6556   26.0249 C   0  0  0  0  0  0  0  0  0  0  0  0
   -2.5397  -15.2772   26.6667 N   0  0  0  0  0  0  0  0  0  0  0  0
   -3.3486  -15.7826   25.7515 C   0  0  0  0  0  0  0  0  0  0  0  0
   -2.8490  -15.4739   24.5260 C   0  0  0  0  0  0  0  0  0  0  0  0
   -1.4354  -14.9797   24.5330 N   0  0  0  0  0  0  0  0  0  0  0  0
    4.6201  -12.9042   20.4821 C   0  0  0  0  0  0  0  0  0  0  0  0
    6.4853  -12.1284   20.8894 H   0  0  0  0  0  0  0  0  0  0  0  0
    6.3401  -11.0224   18.7488 H   0  0  0  0  0  0  0  0  0  0  0  0
    0.6557   -9.1481   18.1721 H   0  0  0  0  0  0  0  0  0  0  0  0
    1.1125   -6.9024   18.9995 H   0  0  0  0  0  0  0  0  0  0  0  0
    2.6618   -8.4532   16.1060 H   0  0  0  0  0  0  0  0  0  0  0  0
    2.2929  -15.1476   19.8323 H   0  0  0  0  0  0  0  0  0  0  0  0
    3.0143  -14.4015   21.4747 H   0  0  0  0  0  0  0  0  0  0  0  0
    0.3379  -15.8681   21.5737 H   0  0  0  0  0  0  0  0  0  0  0  0
    1.6174  -13.5271   24.1821 H   0  0  0  0  0  0  0  0  0  0  0  0
    1.2987  -13.3869   26.5170 H   0  0  0  0  0  0  0  0  0  0  0  0
   -4.2909  -16.2497   26.0020 H   0  0  0  0  0  0  0  0  0  0  0  0
   -3.3582  -15.5688   23.6082 H   0  0  0  0  0  0  0  0  0  0  0  0
    4.1347  -12.7791   21.4281 H   0  0  0  0  0  0  0  0  0  0  0  0
  1  2  2  0
  2  3  1  0
  3  4  2  0
  4  5  1  0
  5  6  1  0
  6  7  2  0
  7  8  1  0
  8  9  2  0
  4 10  1  0
 10 11  1  0
 11 12  1  0
 12 13  1  0
 13 14  2  0
 14 15  1  0
 15 16  2  0
 16 17  1  0
 17 18  2  0
 18 19  1  0
 19 20  2  0
 20 21  1  0
 10 22  2  0
 22  1  1  0
  9  5  1  0
 21 13  1  0
 21 17  1  0
  1 23  1  0
  2 24  1  0
  6 25  1  0
  7 26  1  0
  9 27  1  0
 11 28  1  0
 11 29  1  0
 12 30  1  0
 14 31  1  0
 15 32  1  0
 19 33  1  0
 20 34  1  0
 22 35  1  0
M  END
>  <Energy>  (429) 
1201.0670658556492

>  <compound_id>  (429) 
8671

>  <target_id>  (429) 
1

>  <reference_id>  (429) 
114

>  <inspiration_ids>  (429) 
[114, 107]

>  <energy_score>  (429) 
1061.6959121188456

>  <distance_score>  (429) 
14.475174921795928

>  <path>  (429) 
/opt/xchem-fragalysis-2/maxwin/BulkDock/SCRATCH/511022/C8671-P114/C8671-P114.minimised.mol

>  <scratch_subdir>  (429) 
/opt/xchem-fragalysis-2/maxwin/BulkDock/SCRATCH/511022/C8671-P114

>  <fragmenstein_runtime>  (429) 
21.33080220222473

>  <fragmenstein_outcome>  (429) 
too moved

>  <fragmenstein_mode>  (429) 
expansion

>  <fragmenstein_error>  (429) 


$$$$
C8671-P107
     RDKit          3D

 35 38  0  0  0  0  0  0  0  0999 V2000
    4.7828  -12.7161   20.2971 C   0  0  0  0  0  0  0  0  0  0  0  0
    5.7887  -11.8599   20.4522 C   0  0  0  0  0  0  0  0  0  0  0  0
    5.9667  -11.1364   21.5972 N   0  0  0  0  0  0  0  0  0  0  0  0
    5.1482  -10.9952   22.7743 C   0  0  0  0  0  0  0  0  0  0  0  0
    6.3851  -10.8913   24.0343 N   0  0  0  0  0  0  0  0  0  0  0  0
    7.4878  -11.6858   24.3268 C   0  0  0  0  0  0  0  0  0  0  0  0
    8.4162  -11.0189   25.0948 C   0  0  0  0  0  0  0  0  0  0  0  0
    7.9960   -9.7895   25.4024 N   0  0  0  0  0  0  0  0  0  0  0  0
    6.8023   -9.7389   24.8669 C   0  0  0  0  0  0  0  0  0  0  0  0
    3.7388  -12.0657   22.6503 C   0  0  0  0  0  0  0  0  0  0  0  0
    2.7829  -13.1019   23.9985 C   0  0  0  0  0  0  0  0  0  0  0  0
    1.5624  -13.1942   25.4670 N   0  0  0  0  0  0  0  0  0  0  0  0
    1.0943  -13.8077   26.8755 C   0  0  0  0  0  0  0  0  0  0  0  0
    1.9148  -14.1406   27.9043 C   0  0  0  0  0  0  0  0  0  0  0  0
    1.3867  -14.9265   29.0603 C   0  0  0  0  0  0  0  0  0  0  0  0
    0.1805  -15.3350   29.2604 N   0  0  0  0  0  0  0  0  0  0  0  0
   -0.7163  -14.9573   28.3213 C   0  0  0  0  0  0  0  0  0  0  0  0
   -2.0015  -15.2650   28.3151 N   0  0  0  0  0  0  0  0  0  0  0  0
   -2.5263  -14.6257   27.2472 C   0  0  0  0  0  0  0  0  0  0  0  0
   -1.5478  -13.9290   26.5819 C   0  0  0  0  0  0  0  0  0  0  0  0
   -0.3334  -14.1701   27.1928 N   0  0  0  0  0  0  0  0  0  0  0  0
    3.8051  -12.8009   21.3442 C   0  0  0  0  0  0  0  0  0  0  0  0
    4.6458  -13.2382   19.3663 H   0  0  0  0  0  0  0  0  0  0  0  0
    6.4392  -11.5778   19.6561 H   0  0  0  0  0  0  0  0  0  0  0  0
    7.6538  -12.6545   23.9728 H   0  0  0  0  0  0  0  0  0  0  0  0
    9.3758  -11.3957   25.4245 H   0  0  0  0  0  0  0  0  0  0  0  0
    6.1440   -8.8862   25.0124 H   0  0  0  0  0  0  0  0  0  0  0  0
    2.3167  -12.1301   23.9816 H   0  0  0  0  0  0  0  0  0  0  0  0
    3.6016  -13.5857   24.4943 H   0  0  0  0  0  0  0  0  0  0  0  0
    0.7380  -13.4648   24.9343 H   0  0  0  0  0  0  0  0  0  0  0  0
    2.9872  -14.0161   27.8915 H   0  0  0  0  0  0  0  0  0  0  0  0
    2.1534  -15.1956   29.8071 H   0  0  0  0  0  0  0  0  0  0  0  0
   -3.5831  -14.6714   27.0208 H   0  0  0  0  0  0  0  0  0  0  0  0
   -1.6301  -13.2748   25.7512 H   0  0  0  0  0  0  0  0  0  0  0  0
    3.1747  -13.6446   21.1893 H   0  0  0  0  0  0  0  0  0  0  0  0
  1  2  2  0
  2  3  1  0
  3  4  2  0
  4  5  1  0
  5  6  1  0
  6  7  2  0
  7  8  1  0
  8  9  2  0
  4 10  1  0
 10 11  1  0
 11 12  1  0
 12 13  1  0
 13 14  2  0
 14 15  1  0
 15 16  2  0
 16 17  1  0
 17 18  2  0
 18 19  1  0
 19 20  2  0
 20 21  1  0
 10 22  2  0
 22  1  1  0
  9  5  1  0
 21 13  1  0
 21 17  1  0
  1 23  1  0
  2 24  1  0
  6 25  1  0
  7 26  1  0
  9 27  1  0
 11 28  1  0
 11 29  1  0
 12 30  1  0
 14 31  1  0
 15 32  1  0
 19 33  1  0
 20 34  1  0
 22 35  1  0
M  END
>  <Energy>  (430) 
481.56084707283748

>  <compound_id>  (430) 
8671

>  <target_id>  (430) 
1

>  <reference_id>  (430) 
107

>  <inspiration_ids>  (430) 
[114, 107]

>  <energy_score>  (430) 
342.1896933360424

>  <distance_score>  (430) 
14.910756970398285

>  <path>  (430) 
/opt/xchem-fragalysis-2/maxwin/BulkDock/SCRATCH/511022/C8671-P107/C8671-P107.minimised.mol

>  <scratch_subdir>  (430) 
/opt/xchem-fragalysis-2/maxwin/BulkDock/SCRATCH/511022/C8671-P107

>  <fragmenstein_runtime>  (430) 
22.23380994796753

>  <fragmenstein_outcome>  (430) 
too moved

>  <fragmenstein_mode>  (430) 
expansion

>  <fragmenstein_error>  (430) 


$$$$
C8667-P114
     RDKit          3D

 35 37  0  0  0  0  0  0  0  0999 V2000
    3.5622   -9.1281   29.4902 C   0  0  0  0  0  0  0  0  0  0  0  0
    2.1587   -9.6564   29.5834 C   0  0  0  0  0  0  0  0  0  0  0  0
    1.6065  -10.5011   30.5373 C   0  0  0  0  0  0  0  0  0  0  0  0
    0.2373  -10.5922   30.2937 N   0  0  0  0  0  0  0  0  0  0  0  0
   -0.8033  -11.1721   31.2390 C   0  0  0  0  0  0  0  0  0  0  0  0
   -1.6880  -12.4518   30.8474 C   0  0  0  0  0  0  0  0  0  0  0  0
   -2.6711  -13.2343   31.8201 C   0  0  0  0  0  0  0  0  0  0  0  0
   -2.9535  -14.6353   31.3226 N   0  0  0  0  0  0  0  0  0  0  0  0
   -4.1395  -15.3501   30.9887 C   0  0  0  0  0  0  0  0  0  0  0  0
   -4.1224  -16.2687   29.9937 C   0  0  0  0  0  0  0  0  0  0  0  0
   -5.3987  -16.9573   29.6466 C   0  0  0  0  0  0  0  0  0  0  0  0
   -6.5499  -16.7548   30.1958 N   0  0  0  0  0  0  0  0  0  0  0  0
   -6.5438  -15.9103   31.2654 C   0  0  0  0  0  0  0  0  0  0  0  0
   -7.5599  -15.5938   32.0435 N   0  0  0  0  0  0  0  0  0  0  0  0
   -7.0461  -14.8241   33.0423 C   0  0  0  0  0  0  0  0  0  0  0  0
   -5.7085  -14.5853   32.8389 C   0  0  0  0  0  0  0  0  0  0  0  0
   -5.3759  -15.2402   31.6772 N   0  0  0  0  0  0  0  0  0  0  0  0
    0.0469   -9.7740   29.1911 C   0  0  0  0  0  0  0  0  0  0  0  0
    1.1744   -9.2732   28.7023 N   0  0  0  0  0  0  0  0  0  0  0  0
    3.9865   -9.0317   30.4956 H   0  0  0  0  0  0  0  0  0  0  0  0
    3.5810   -8.1360   29.0354 H   0  0  0  0  0  0  0  0  0  0  0  0
    4.1984   -9.8157   28.9283 H   0  0  0  0  0  0  0  0  0  0  0  0
    2.0470  -10.9898   31.3957 H   0  0  0  0  0  0  0  0  0  0  0  0
   -0.2481  -11.4069   32.1547 H   0  0  0  0  0  0  0  0  0  0  0  0
   -1.4711  -10.3305   31.4579 H   0  0  0  0  0  0  0  0  0  0  0  0
   -2.3583  -12.1227   30.0467 H   0  0  0  0  0  0  0  0  0  0  0  0
   -0.9919  -13.2066   30.4817 H   0  0  0  0  0  0  0  0  0  0  0  0
   -2.1989  -13.3220   32.8034 H   0  0  0  0  0  0  0  0  0  0  0  0
   -3.6036  -12.6720   31.9263 H   0  0  0  0  0  0  0  0  0  0  0  0
   -2.1398  -15.0282   30.8501 H   0  0  0  0  0  0  0  0  0  0  0  0
   -3.2519  -16.4997   29.3969 H   0  0  0  0  0  0  0  0  0  0  0  0
   -5.3276  -17.6707   28.8089 H   0  0  0  0  0  0  0  0  0  0  0  0
   -7.6675  -14.4744   33.8565 H   0  0  0  0  0  0  0  0  0  0  0  0
   -4.9784  -14.0385   33.4132 H   0  0  0  0  0  0  0  0  0  0  0  0
   -0.9429   -9.5782   28.7999 H   0  0  0  0  0  0  0  0  0  0  0  0
  1  2  1  0
  2  3  2  0
  3  4  1  0
  4  5  1  0
  5  6  1  0
  6  7  1  0
  7  8  1  0
  8  9  1  0
  9 10  2  0
 10 11  1  0
 11 12  2  0
 12 13  1  0
 13 14  2  0
 14 15  1  0
 15 16  2  0
 16 17  1  0
  4 18  1  0
 18 19  2  0
 19  2  1  0
 17  9  1  0
 17 13  1  0
  1 20  1  0
  1 21  1  0
  1 22  1  0
  3 23  1  0
  5 24  1  0
  5 25  1  0
  6 26  1  0
  6 27  1  0
  7 28  1  0
  7 29  1  0
  8 30  1  0
 10 31  1  0
 11 32  1  0
 15 33  1  0
 16 34  1  0
 18 35  1  0
M  END
>  <Energy>  (431) 
69.517055200008713

>  <compound_id>  (431) 
8667

>  <target_id>  (431) 
1

>  <reference_id>  (431) 
114

>  <inspiration_ids>  (431) 
[114, 107]

>  <energy_score>  (431) 
-17.78932507651689

>  <distance_score>  (431) 
14.216416572241581

>  <path>  (431) 
/opt/xchem-fragalysis-2/maxwin/BulkDock/SCRATCH/511022/C8667-P114/C8667-P114.minimised.mol

>  <scratch_subdir>  (431) 
/opt/xchem-fragalysis-2/maxwin/BulkDock/SCRATCH/511022/C8667-P114

>  <fragmenstein_runtime>  (431) 
20.033292770385742

>  <fragmenstein_outcome>  (431) 
too moved

>  <fragmenstein_mode>  (431) 
expansion

>  <fragmenstein_error>  (431) 


$$$$
C8667-P107
     RDKit          3D

 35 37  0  0  0  0  0  0  0  0999 V2000
    6.9681   -8.0066   26.8201 C   0  0  0  0  0  0  0  0  0  0  0  0
    5.8589   -8.3020   27.7869 C   0  0  0  0  0  0  0  0  0  0  0  0
    5.3038   -9.5074   28.2101 C   0  0  0  0  0  0  0  0  0  0  0  0
    4.1506   -9.1830   28.9273 N   0  0  0  0  0  0  0  0  0  0  0  0
    2.9453  -10.0478   29.2197 C   0  0  0  0  0  0  0  0  0  0  0  0
    1.5499   -9.7606   28.4423 C   0  0  0  0  0  0  0  0  0  0  0  0
    0.3383  -10.6618   27.7997 C   0  0  0  0  0  0  0  0  0  0  0  0
    0.0138  -11.7158   26.2482 N   0  0  0  0  0  0  0  0  0  0  0  0
   -1.7034  -12.4718   25.6875 C   0  0  0  0  0  0  0  0  0  0  0  0
   -1.9007  -13.8690   25.5421 C   0  0  0  0  0  0  0  0  0  0  0  0
   -3.2303  -14.5806   25.6827 C   0  0  0  0  0  0  0  0  0  0  0  0
   -4.3739  -14.0375   25.8914 N   0  0  0  0  0  0  0  0  0  0  0  0
   -4.3674  -12.6922   26.0671 C   0  0  0  0  0  0  0  0  0  0  0  0
   -5.4156  -11.9980   26.4581 N   0  0  0  0  0  0  0  0  0  0  0  0
   -4.9658  -10.7425   26.6923 C   0  0  0  0  0  0  0  0  0  0  0  0
   -3.6231  -10.6255   26.4141 C   0  0  0  0  0  0  0  0  0  0  0  0
   -3.1858  -11.8608   25.9764 N   0  0  0  0  0  0  0  0  0  0  0  0
    4.2320   -7.8225   29.1209 C   0  0  0  0  0  0  0  0  0  0  0  0
    5.1803   -7.2696   28.3901 N   0  0  0  0  0  0  0  0  0  0  0  0
    7.7305   -7.3867   27.3006 H   0  0  0  0  0  0  0  0  0  0  0  0
    6.5725   -7.4720   25.9512 H   0  0  0  0  0  0  0  0  0  0  0  0
    7.4368   -8.9330   26.4749 H   0  0  0  0  0  0  0  0  0  0  0  0
    5.5653  -10.5300   27.9793 H   0  0  0  0  0  0  0  0  0  0  0  0
    2.7807   -9.8745   30.2927 H   0  0  0  0  0  0  0  0  0  0  0  0
    3.2666  -11.0769   29.1408 H   0  0  0  0  0  0  0  0  0  0  0  0
    1.5578   -8.7920   27.9596 H   0  0  0  0  0  0  0  0  0  0  0  0
    0.9856   -9.4233   29.3366 H   0  0  0  0  0  0  0  0  0  0  0  0
   -0.0480  -11.1265   28.7110 H   0  0  0  0  0  0  0  0  0  0  0  0
   -0.4063   -9.8547   27.6426 H   0  0  0  0  0  0  0  0  0  0  0  0
    0.7556  -12.3806   25.9594 H   0  0  0  0  0  0  0  0  0  0  0  0
   -1.2458  -14.3814   24.8452 H   0  0  0  0  0  0  0  0  0  0  0  0
   -3.1894  -15.6708   25.5309 H   0  0  0  0  0  0  0  0  0  0  0  0
   -5.6299   -9.9683   27.0559 H   0  0  0  0  0  0  0  0  0  0  0  0
   -2.9752   -9.7726   26.5215 H   0  0  0  0  0  0  0  0  0  0  0  0
    3.5282   -7.2822   29.7421 H   0  0  0  0  0  0  0  0  0  0  0  0
  1  2  1  0
  2  3  2  0
  3  4  1  0
  4  5  1  0
  5  6  1  0
  6  7  1  0
  7  8  1  0
  8  9  1  0
  9 10  2  0
 10 11  1  0
 11 12  2  0
 12 13  1  0
 13 14  2  0
 14 15  1  0
 15 16  2  0
 16 17  1  0
  4 18  1  0
 18 19  2  0
 19  2  1  0
 17  9  1  0
 17 13  1  0
  1 20  1  0
  1 21  1  0
  1 22  1  0
  3 23  1  0
  5 24  1  0
  5 25  1  0
  6 26  1  0
  6 27  1  0
  7 28  1  0
  7 29  1  0
  8 30  1  0
 10 31  1  0
 11 32  1  0
 15 33  1  0
 16 34  1  0
 18 35  1  0
M  END
>  <Energy>  (432) 
299.96651536883394

>  <compound_id>  (432) 
8667

>  <target_id>  (432) 
1

>  <reference_id>  (432) 
107

>  <inspiration_ids>  (432) 
[114, 107]

>  <energy_score>  (432) 
212.6601350923038

>  <distance_score>  (432) 
15.139114278269822

>  <path>  (432) 
/opt/xchem-fragalysis-2/maxwin/BulkDock/SCRATCH/511022/C8667-P107/C8667-P107.minimised.mol

>  <scratch_subdir>  (432) 
/opt/xchem-fragalysis-2/maxwin/BulkDock/SCRATCH/511022/C8667-P107

>  <fragmenstein_runtime>  (432) 
29.081807851791382

>  <fragmenstein_outcome>  (432) 
too moved

>  <fragmenstein_mode>  (432) 
expansion

>  <fragmenstein_error>  (432) 


$$$$
C8674-P114
     RDKit          3D

 39 42  0  0  0  0  0  0  0  0999 V2000
   -5.7240  -16.6654   23.1245 C   0  0  0  0  0  0  0  0  0  0  0  0
   -5.4888  -17.3019   24.4375 N   0  0  0  0  0  0  0  0  0  0  0  0
   -3.6613  -16.7382   24.8976 C   0  0  0  0  0  0  0  0  0  0  0  0
   -2.1339  -15.4217   24.8141 C   0  0  0  0  0  0  0  0  0  0  0  0
   -1.0310  -14.7346   23.9234 N   0  0  0  0  0  0  0  0  0  0  0  0
    0.6680  -14.1456   24.4247 C   0  0  0  0  0  0  0  0  0  0  0  0
    2.5331  -13.3751   24.0926 C   0  0  0  0  0  0  0  0  0  0  0  0
    3.2745  -12.2516   22.9597 C   0  0  0  0  0  0  0  0  0  0  0  0
    4.8147  -11.2272   22.8107 C   0  0  0  0  0  0  0  0  0  0  0  0
    5.9436  -11.5962   24.1927 C   0  0  0  0  0  0  0  0  0  0  0  0
    5.5157  -12.7603   25.4491 C   0  0  0  0  0  0  0  0  0  0  0  0
    3.9769  -13.7798   25.1050 C   0  0  0  0  0  0  0  0  0  0  0  0
    0.0763  -14.1639   25.7794 C   0  0  0  0  0  0  0  0  0  0  0  0
   -1.4552  -14.7683   25.9744 N   0  0  0  0  0  0  0  0  0  0  0  0
   -6.8265  -18.5242   24.7928 C   0  0  0  0  0  0  0  0  0  0  0  0
   -6.8140  -19.3242   26.3659 C   0  0  0  0  0  0  0  0  0  0  0  0
   -8.0955  -20.8821   27.0011 C   0  0  0  0  0  0  0  0  0  0  0  0
   -9.8389  -20.6218   26.4207 N   0  0  0  0  0  0  0  0  0  0  0  0
  -10.0606  -20.1724   24.4611 C   0  0  0  0  0  0  0  0  0  0  0  0
  -10.9916  -19.8804   23.5547 N   0  0  0  0  0  0  0  0  0  0  0  0
  -10.3930  -19.0825   22.5326 C   0  0  0  0  0  0  0  0  0  0  0  0
   -9.1074  -18.5459   22.7042 C   0  0  0  0  0  0  0  0  0  0  0  0
   -8.5401  -18.9799   23.8973 N   0  0  0  0  0  0  0  0  0  0  0  0
   -5.4681  -17.3655   22.3248 H   0  0  0  0  0  0  0  0  0  0  0  0
   -5.1156  -15.7629   23.0172 H   0  0  0  0  0  0  0  0  0  0  0  0
   -6.7736  -16.3742   23.0307 H   0  0  0  0  0  0  0  0  0  0  0  0
   -3.1239  -17.6144   24.5096 H   0  0  0  0  0  0  0  0  0  0  0  0
   -3.7405  -16.8187   25.9902 H   0  0  0  0  0  0  0  0  0  0  0  0
    3.3325  -12.7603   21.9706 H   0  0  0  0  0  0  0  0  0  0  0  0
    4.7738  -10.1772   22.9165 H   0  0  0  0  0  0  0  0  0  0  0  0
    6.8159  -10.9553   24.3384 H   0  0  0  0  0  0  0  0  0  0  0  0
    6.1701  -12.9944   26.2850 H   0  0  0  0  0  0  0  0  0  0  0  0
    3.9421  -14.5371   25.8894 H   0  0  0  0  0  0  0  0  0  0  0  0
    0.6419  -14.1698   26.7057 H   0  0  0  0  0  0  0  0  0  0  0  0
   -1.7219  -14.9863   26.9178 H   0  0  0  0  0  0  0  0  0  0  0  0
   -6.0036  -19.1727   27.0782 H   0  0  0  0  0  0  0  0  0  0  0  0
   -7.7667  -21.6830   27.6938 H   0  0  0  0  0  0  0  0  0  0  0  0
  -11.0100  -18.8703   21.6641 H   0  0  0  0  0  0  0  0  0  0  0  0
   -8.5384  -17.8905   22.0629 H   0  0  0  0  0  0  0  0  0  0  0  0
  1  2  1  0
  2  3  1  0
  3  4  1  0
  4  5  2  0
  5  6  1  0
  6  7  1  0
  7  8  2  0
  8  9  1  0
  9 10  2  0
 10 11  1  0
 11 12  2  0
  6 13  2  0
 13 14  1  0
  2 15  1  0
 15 16  2  0
 16 17  1  0
 17 18  2  0
 18 19  1  0
 19 20  2  0
 20 21  1  0
 21 22  2  0
 22 23  1  0
 14  4  1  0
 23 15  1  0
 12  7  1  0
 23 19  1  0
  1 24  1  0
  1 25  1  0
  1 26  1  0
  3 27  1  0
  3 28  1  0
  8 29  1  0
  9 30  1  0
 10 31  1  0
 11 32  1  0
 12 33  1  0
 13 34  1  0
 14 35  1  0
 16 36  1  0
 17 37  1  0
 21 38  1  0
 22 39  1  0
M  END
>  <Energy>  (433) 
1694.1473309724006

>  <compound_id>  (433) 
8674

>  <target_id>  (433) 
1

>  <reference_id>  (433) 
114

>  <inspiration_ids>  (433) 
[114, 107]

>  <energy_score>  (433) 
1571.4023473805005

>  <distance_score>  (433) 
13.896043928483216

>  <path>  (433) 
/opt/xchem-fragalysis-2/maxwin/BulkDock/SCRATCH/511022/C8674-P114/C8674-P114.minimised.mol

>  <scratch_subdir>  (433) 
/opt/xchem-fragalysis-2/maxwin/BulkDock/SCRATCH/511022/C8674-P114

>  <fragmenstein_runtime>  (433) 
14.345629930496216

>  <fragmenstein_outcome>  (433) 
too moved

>  <fragmenstein_mode>  (433) 
expansion

>  <fragmenstein_error>  (433) 


$$$$
C8674-P107
     RDKit          3D

 39 42  0  0  0  0  0  0  0  0999 V2000
    0.6744  -14.1784   23.9921 C   0  0  0  0  0  0  0  0  0  0  0  0
    1.6829  -13.0257   24.7014 N   0  0  0  0  0  0  0  0  0  0  0  0
    1.3267  -11.7035   23.3119 C   0  0  0  0  0  0  0  0  0  0  0  0
    0.0943  -10.4607   22.2786 C   0  0  0  0  0  0  0  0  0  0  0  0
    0.0195   -9.0932   22.4625 N   0  0  0  0  0  0  0  0  0  0  0  0
   -1.2130   -8.6383   22.1326 C   0  0  0  0  0  0  0  0  0  0  0  0
   -1.9359   -7.6471   22.9296 C   0  0  0  0  0  0  0  0  0  0  0  0
   -1.2600   -6.9139   23.9208 C   0  0  0  0  0  0  0  0  0  0  0  0
   -1.9394   -6.0094   24.7391 C   0  0  0  0  0  0  0  0  0  0  0  0
   -3.3108   -5.8276   24.5835 C   0  0  0  0  0  0  0  0  0  0  0  0
   -4.0016   -6.5497   23.6118 C   0  0  0  0  0  0  0  0  0  0  0  0
   -3.3211   -7.4575   22.7933 C   0  0  0  0  0  0  0  0  0  0  0  0
   -1.7113   -9.4687   21.1847 C   0  0  0  0  0  0  0  0  0  0  0  0
   -0.9214  -10.5980   21.2840 N   0  0  0  0  0  0  0  0  0  0  0  0
    1.3131  -13.4034   26.4315 C   0  0  0  0  0  0  0  0  0  0  0  0
    0.5359  -14.4923   26.7957 C   0  0  0  0  0  0  0  0  0  0  0  0
    0.4555  -15.2630   28.0673 C   0  0  0  0  0  0  0  0  0  0  0  0
    0.8960  -14.8497   29.1891 N   0  0  0  0  0  0  0  0  0  0  0  0
    1.2919  -13.5574   29.1354 C   0  0  0  0  0  0  0  0  0  0  0  0
    1.2876  -12.7829   30.1982 N   0  0  0  0  0  0  0  0  0  0  0  0
    1.4085  -11.5239   29.7432 C   0  0  0  0  0  0  0  0  0  0  0  0
    1.5406  -11.5013   28.3801 C   0  0  0  0  0  0  0  0  0  0  0  0
    1.5501  -12.8109   27.8924 N   0  0  0  0  0  0  0  0  0  0  0  0
   -0.0821  -14.5325   24.6703 H   0  0  0  0  0  0  0  0  0  0  0  0
    1.4205  -14.7223   23.3817 H   0  0  0  0  0  0  0  0  0  0  0  0
   -0.0773  -13.9243   23.2384 H   0  0  0  0  0  0  0  0  0  0  0  0
    0.4461  -12.0877   22.8132 H   0  0  0  0  0  0  0  0  0  0  0  0
    2.3188  -11.8466   22.8759 H   0  0  0  0  0  0  0  0  0  0  0  0
   -0.1857   -7.0432   24.0467 H   0  0  0  0  0  0  0  0  0  0  0  0
   -1.3891   -5.4485   25.4899 H   0  0  0  0  0  0  0  0  0  0  0  0
   -3.8396   -5.1195   25.2160 H   0  0  0  0  0  0  0  0  0  0  0  0
   -5.0715   -6.4037   23.4876 H   0  0  0  0  0  0  0  0  0  0  0  0
   -3.8874   -8.0030   22.0444 H   0  0  0  0  0  0  0  0  0  0  0  0
   -2.6145   -9.4807   20.5942 H   0  0  0  0  0  0  0  0  0  0  0  0
   -1.1847  -11.4087   20.7529 H   0  0  0  0  0  0  0  0  0  0  0  0
   -0.4578  -14.5492   26.3372 H   0  0  0  0  0  0  0  0  0  0  0  0
    0.0109  -16.2688   27.9922 H   0  0  0  0  0  0  0  0  0  0  0  0
    1.3799  -10.6776   30.4173 H   0  0  0  0  0  0  0  0  0  0  0  0
    1.6018  -10.6646   27.7292 H   0  0  0  0  0  0  0  0  0  0  0  0
  1  2  1  0
  2  3  1  0
  3  4  1  0
  4  5  2  0
  5  6  1  0
  6  7  1  0
  7  8  2  0
  8  9  1  0
  9 10  2  0
 10 11  1  0
 11 12  2  0
  6 13  2  0
 13 14  1  0
  2 15  1  0
 15 16  2  0
 16 17  1  0
 17 18  2  0
 18 19  1  0
 19 20  2  0
 20 21  1  0
 21 22  2  0
 22 23  1  0
 14  4  1  0
 23 15  1  0
 12  7  1  0
 23 19  1  0
  1 24  1  0
  1 25  1  0
  1 26  1  0
  3 27  1  0
  3 28  1  0
  8 29  1  0
  9 30  1  0
 10 31  1  0
 11 32  1  0
 12 33  1  0
 13 34  1  0
 14 35  1  0
 16 36  1  0
 17 37  1  0
 21 38  1  0
 22 39  1  0
M  END
>  <Energy>  (434) 
501.94762605961171

>  <compound_id>  (434) 
8674

>  <target_id>  (434) 
1

>  <reference_id>  (434) 
107

>  <inspiration_ids>  (434) 
[114, 107]

>  <energy_score>  (434) 
379.20264246768875

>  <distance_score>  (434) 
16.684994341660264

>  <path>  (434) 
/opt/xchem-fragalysis-2/maxwin/BulkDock/SCRATCH/511022/C8674-P107/C8674-P107.minimised.mol

>  <scratch_subdir>  (434) 
/opt/xchem-fragalysis-2/maxwin/BulkDock/SCRATCH/511022/C8674-P107

>  <fragmenstein_runtime>  (434) 
16.821435689926147

>  <fragmenstein_outcome>  (434) 
too moved

>  <fragmenstein_mode>  (434) 
expansion

>  <fragmenstein_error>  (434) 


$$$$
C8664-P114
     RDKit          3D

 35 37  0  0  0  0  0  0  0  0999 V2000
   -2.4741  -18.3113   20.2284 C   0  0  0  0  0  0  0  0  0  0  0  0
   -2.0716  -17.3070   21.2972 C   0  0  0  0  0  0  0  0  0  0  0  0
   -2.9032  -16.1186   21.3002 N   0  0  0  0  0  0  0  0  0  0  0  0
   -2.9215  -15.2071   20.2699 C   0  0  0  0  0  0  0  0  0  0  0  0
   -3.8272  -14.2818   20.4590 N   0  0  0  0  0  0  0  0  0  0  0  0
   -4.4672  -14.6547   21.6177 C   0  0  0  0  0  0  0  0  0  0  0  0
   -3.8717  -15.7518   22.2271 C   0  0  0  0  0  0  0  0  0  0  0  0
   -4.1383  -16.3824   23.6116 C   0  0  0  0  0  0  0  0  0  0  0  0
   -5.3598  -17.2361   23.8679 N   0  0  0  0  0  0  0  0  0  0  0  0
   -5.7753  -18.0086   22.6896 C   0  0  0  0  0  0  0  0  0  0  0  0
   -6.3392  -16.8589   24.8336 C   0  0  0  0  0  0  0  0  0  0  0  0
   -7.4619  -16.1962   24.4891 C   0  0  0  0  0  0  0  0  0  0  0  0
   -8.4556  -15.9251   25.5618 C   0  0  0  0  0  0  0  0  0  0  0  0
   -8.3750  -16.2809   26.8023 N   0  0  0  0  0  0  0  0  0  0  0  0
   -7.2486  -16.9681   27.1460 C   0  0  0  0  0  0  0  0  0  0  0  0
   -6.9670  -17.5101   28.3103 N   0  0  0  0  0  0  0  0  0  0  0  0
   -5.7575  -18.1268   28.1575 C   0  0  0  0  0  0  0  0  0  0  0  0
   -5.3044  -18.0113   26.8637 C   0  0  0  0  0  0  0  0  0  0  0  0
   -6.2432  -17.2545   26.2011 N   0  0  0  0  0  0  0  0  0  0  0  0
   -3.5179  -18.6187   20.3452 H   0  0  0  0  0  0  0  0  0  0  0  0
   -2.3613  -17.8916   19.2234 H   0  0  0  0  0  0  0  0  0  0  0  0
   -1.8438  -19.2037   20.2926 H   0  0  0  0  0  0  0  0  0  0  0  0
   -1.0413  -16.9774   21.1360 H   0  0  0  0  0  0  0  0  0  0  0  0
   -2.1281  -17.7809   22.2783 H   0  0  0  0  0  0  0  0  0  0  0  0
   -2.2793  -15.2902   19.4033 H   0  0  0  0  0  0  0  0  0  0  0  0
   -5.2957  -14.0715   22.0012 H   0  0  0  0  0  0  0  0  0  0  0  0
   -4.1509  -15.5517   24.3309 H   0  0  0  0  0  0  0  0  0  0  0  0
   -3.2717  -16.9877   23.8982 H   0  0  0  0  0  0  0  0  0  0  0  0
   -4.9404  -18.6108   22.3195 H   0  0  0  0  0  0  0  0  0  0  0  0
   -6.5895  -18.6966   22.9374 H   0  0  0  0  0  0  0  0  0  0  0  0
   -6.1309  -17.3524   21.8886 H   0  0  0  0  0  0  0  0  0  0  0  0
   -7.6791  -15.8590   23.4858 H   0  0  0  0  0  0  0  0  0  0  0  0
   -9.3458  -15.3629   25.2332 H   0  0  0  0  0  0  0  0  0  0  0  0
   -5.2780  -18.6256   28.9916 H   0  0  0  0  0  0  0  0  0  0  0  0
   -4.4184  -18.3759   26.3665 H   0  0  0  0  0  0  0  0  0  0  0  0
  1  2  1  0
  2  3  1  0
  3  4  1  0
  4  5  2  0
  5  6  1  0
  6  7  2  0
  7  8  1  0
  8  9  1  0
  9 10  1  0
  9 11  1  0
 11 12  2  0
 12 13  1  0
 13 14  2  0
 14 15  1  0
 15 16  2  0
 16 17  1  0
 17 18  2  0
 18 19  1  0
  7  3  1  0
 19 11  1  0
 19 15  1  0
  1 20  1  0
  1 21  1  0
  1 22  1  0
  2 23  1  0
  2 24  1  0
  4 25  1  0
  6 26  1  0
  8 27  1  0
  8 28  1  0
 10 29  1  0
 10 30  1  0
 10 31  1  0
 12 32  1  0
 13 33  1  0
 17 34  1  0
 18 35  1  0
M  END
>  <Energy>  (435) 
49.510667248251394

>  <compound_id>  (435) 
8664

>  <target_id>  (435) 
1

>  <reference_id>  (435) 
114

>  <inspiration_ids>  (435) 
[114, 107]

>  <energy_score>  (435) 
-26.962589210947044

>  <distance_score>  (435) 
15.141515185210828

>  <path>  (435) 
/opt/xchem-fragalysis-2/maxwin/BulkDock/SCRATCH/511022/C8664-P114/C8664-P114.minimised.mol

>  <scratch_subdir>  (435) 
/opt/xchem-fragalysis-2/maxwin/BulkDock/SCRATCH/511022/C8664-P114

>  <fragmenstein_runtime>  (435) 
25.759904623031616

>  <fragmenstein_outcome>  (435) 
too moved

>  <fragmenstein_mode>  (435) 
expansion

>  <fragmenstein_error>  (435) 


$$$$
C8664-P107
     RDKit          3D

 35 37  0  0  0  0  0  0  0  0999 V2000
    5.5710  -13.7291   19.3295 C   0  0  0  0  0  0  0  0  0  0  0  0
    4.4331  -14.9267   18.4076 C   0  0  0  0  0  0  0  0  0  0  0  0
    3.0012  -14.5901   18.5655 N   0  0  0  0  0  0  0  0  0  0  0  0
    3.6325  -13.2852   18.6607 C   0  0  0  0  0  0  0  0  0  0  0  0
    3.8203  -12.9968   20.0379 N   0  0  0  0  0  0  0  0  0  0  0  0
    2.9097  -13.9196   20.7713 C   0  0  0  0  0  0  0  0  0  0  0  0
    2.1818  -15.0019   19.9625 C   0  0  0  0  0  0  0  0  0  0  0  0
    0.5700  -16.3066   20.0967 C   0  0  0  0  0  0  0  0  0  0  0  0
   -1.1302  -16.4537   20.7407 N   0  0  0  0  0  0  0  0  0  0  0  0
   -2.1495  -16.0170   19.7294 C   0  0  0  0  0  0  0  0  0  0  0  0
   -1.6836  -17.6660   21.4664 C   0  0  0  0  0  0  0  0  0  0  0  0
   -1.3039  -18.9382   21.2164 C   0  0  0  0  0  0  0  0  0  0  0  0
   -2.0094  -20.0485   21.9344 C   0  0  0  0  0  0  0  0  0  0  0  0
   -2.9872  -19.9501   22.7759 N   0  0  0  0  0  0  0  0  0  0  0  0
   -3.3982  -18.6829   23.0435 C   0  0  0  0  0  0  0  0  0  0  0  0
   -4.3647  -18.3156   23.8678 N   0  0  0  0  0  0  0  0  0  0  0  0
   -4.4026  -16.9558   23.8114 C   0  0  0  0  0  0  0  0  0  0  0  0
   -3.4684  -16.4780   22.9225 C   0  0  0  0  0  0  0  0  0  0  0  0
   -2.7900  -17.5670   22.4180 N   0  0  0  0  0  0  0  0  0  0  0  0
    6.3311  -14.3275   19.4108 H   0  0  0  0  0  0  0  0  0  0  0  0
    5.5227  -13.5145   20.4087 H   0  0  0  0  0  0  0  0  0  0  0  0
    5.7298  -12.6747   19.0473 H   0  0  0  0  0  0  0  0  0  0  0  0
    4.7084  -15.9075   18.7694 H   0  0  0  0  0  0  0  0  0  0  0  0
    4.4431  -15.0105   17.3542 H   0  0  0  0  0  0  0  0  0  0  0  0
    3.6785  -12.4966   17.9147 H   0  0  0  0  0  0  0  0  0  0  0  0
    3.1426  -14.0645   21.8202 H   0  0  0  0  0  0  0  0  0  0  0  0
    0.6045  -17.1165   19.3223 H   0  0  0  0  0  0  0  0  0  0  0  0
    0.7362  -17.0990   20.7557 H   0  0  0  0  0  0  0  0  0  0  0  0
   -3.0998  -15.7863   20.2206 H   0  0  0  0  0  0  0  0  0  0  0  0
   -2.3309  -16.8256   19.0128 H   0  0  0  0  0  0  0  0  0  0  0  0
   -1.8807  -15.1233   19.1738 H   0  0  0  0  0  0  0  0  0  0  0  0
   -0.5383  -19.2083   20.5037 H   0  0  0  0  0  0  0  0  0  0  0  0
   -1.6331  -21.0563   21.6888 H   0  0  0  0  0  0  0  0  0  0  0  0
   -5.1040  -16.3858   24.4062 H   0  0  0  0  0  0  0  0  0  0  0  0
   -3.2117  -15.4844   22.6056 H   0  0  0  0  0  0  0  0  0  0  0  0
  1  2  1  0
  2  3  1  0
  3  4  1  0
  4  5  2  0
  5  6  1  0
  6  7  2  0
  7  8  1  0
  8  9  1  0
  9 10  1  0
  9 11  1  0
 11 12  2  0
 12 13  1  0
 13 14  2  0
 14 15  1  0
 15 16  2  0
 16 17  1  0
 17 18  2  0
 18 19  1  0
  7  3  1  0
 19 11  1  0
 19 15  1  0
  1 20  1  0
  1 21  1  0
  1 22  1  0
  2 23  1  0
  2 24  1  0
  4 25  1  0
  6 26  1  0
  8 27  1  0
  8 28  1  0
 10 29  1  0
 10 30  1  0
 10 31  1  0
 12 32  1  0
 13 33  1  0
 17 34  1  0
 18 35  1  0
M  END
>  <Energy>  (436) 
484.73668589562772

>  <compound_id>  (436) 
8664

>  <target_id>  (436) 
1

>  <reference_id>  (436) 
107

>  <inspiration_ids>  (436) 
[114, 107]

>  <energy_score>  (436) 
408.263429436425

>  <distance_score>  (436) 
14.445930511728282

>  <path>  (436) 
/opt/xchem-fragalysis-2/maxwin/BulkDock/SCRATCH/511022/C8664-P107/C8664-P107.minimised.mol

>  <scratch_subdir>  (436) 
/opt/xchem-fragalysis-2/maxwin/BulkDock/SCRATCH/511022/C8664-P107

>  <fragmenstein_runtime>  (436) 
21.49279761314392

>  <fragmenstein_outcome>  (436) 
too moved

>  <fragmenstein_mode>  (436) 
expansion

>  <fragmenstein_error>  (436) 


$$$$
C8674-P114
     RDKit          3D

 39 42  0  0  0  0  0  0  0  0999 V2000
   -5.7240  -16.6654   23.1245 C   0  0  0  0  0  0  0  0  0  0  0  0
   -5.4888  -17.3019   24.4375 N   0  0  0  0  0  0  0  0  0  0  0  0
   -3.6613  -16.7382   24.8976 C   0  0  0  0  0  0  0  0  0  0  0  0
   -2.1339  -15.4217   24.8141 C   0  0  0  0  0  0  0  0  0  0  0  0
   -1.0310  -14.7346   23.9234 N   0  0  0  0  0  0  0  0  0  0  0  0
    0.6680  -14.1456   24.4247 C   0  0  0  0  0  0  0  0  0  0  0  0
    2.5331  -13.3751   24.0926 C   0  0  0  0  0  0  0  0  0  0  0  0
    3.2745  -12.2516   22.9597 C   0  0  0  0  0  0  0  0  0  0  0  0
    4.8147  -11.2272   22.8107 C   0  0  0  0  0  0  0  0  0  0  0  0
    5.9436  -11.5962   24.1927 C   0  0  0  0  0  0  0  0  0  0  0  0
    5.5157  -12.7603   25.4491 C   0  0  0  0  0  0  0  0  0  0  0  0
    3.9769  -13.7798   25.1050 C   0  0  0  0  0  0  0  0  0  0  0  0
    0.0763  -14.1639   25.7794 C   0  0  0  0  0  0  0  0  0  0  0  0
   -1.4552  -14.7683   25.9744 N   0  0  0  0  0  0  0  0  0  0  0  0
   -6.8265  -18.5242   24.7928 C   0  0  0  0  0  0  0  0  0  0  0  0
   -6.8140  -19.3242   26.3659 C   0  0  0  0  0  0  0  0  0  0  0  0
   -8.0955  -20.8821   27.0011 C   0  0  0  0  0  0  0  0  0  0  0  0
   -9.8389  -20.6218   26.4207 N   0  0  0  0  0  0  0  0  0  0  0  0
  -10.0606  -20.1724   24.4611 C   0  0  0  0  0  0  0  0  0  0  0  0
  -10.9916  -19.8804   23.5547 N   0  0  0  0  0  0  0  0  0  0  0  0
  -10.3930  -19.0825   22.5326 C   0  0  0  0  0  0  0  0  0  0  0  0
   -9.1074  -18.5459   22.7042 C   0  0  0  0  0  0  0  0  0  0  0  0
   -8.5401  -18.9799   23.8973 N   0  0  0  0  0  0  0  0  0  0  0  0
   -5.4681  -17.3655   22.3248 H   0  0  0  0  0  0  0  0  0  0  0  0
   -5.1156  -15.7629   23.0172 H   0  0  0  0  0  0  0  0  0  0  0  0
   -6.7736  -16.3742   23.0307 H   0  0  0  0  0  0  0  0  0  0  0  0
   -3.1239  -17.6144   24.5096 H   0  0  0  0  0  0  0  0  0  0  0  0
   -3.7405  -16.8187   25.9902 H   0  0  0  0  0  0  0  0  0  0  0  0
    3.3325  -12.7603   21.9706 H   0  0  0  0  0  0  0  0  0  0  0  0
    4.7738  -10.1772   22.9165 H   0  0  0  0  0  0  0  0  0  0  0  0
    6.8159  -10.9553   24.3384 H   0  0  0  0  0  0  0  0  0  0  0  0
    6.1701  -12.9944   26.2850 H   0  0  0  0  0  0  0  0  0  0  0  0
    3.9421  -14.5371   25.8894 H   0  0  0  0  0  0  0  0  0  0  0  0
    0.6419  -14.1698   26.7057 H   0  0  0  0  0  0  0  0  0  0  0  0
   -1.7219  -14.9863   26.9178 H   0  0  0  0  0  0  0  0  0  0  0  0
   -6.0036  -19.1727   27.0782 H   0  0  0  0  0  0  0  0  0  0  0  0
   -7.7667  -21.6830   27.6938 H   0  0  0  0  0  0  0  0  0  0  0  0
  -11.0100  -18.8703   21.6641 H   0  0  0  0  0  0  0  0  0  0  0  0
   -8.5384  -17.8905   22.0629 H   0  0  0  0  0  0  0  0  0  0  0  0
  1  2  1  0
  2  3  1  0
  3  4  1  0
  4  5  2  0
  5  6  1  0
  6  7  1  0
  7  8  2  0
  8  9  1  0
  9 10  2  0
 10 11  1  0
 11 12  2  0
  6 13  2  0
 13 14  1  0
  2 15  1  0
 15 16  2  0
 16 17  1  0
 17 18  2  0
 18 19  1  0
 19 20  2  0
 20 21  1  0
 21 22  2  0
 22 23  1  0
 14  4  1  0
 23 15  1  0
 12  7  1  0
 23 19  1  0
  1 24  1  0
  1 25  1  0
  1 26  1  0
  3 27  1  0
  3 28  1  0
  8 29  1  0
  9 30  1  0
 10 31  1  0
 11 32  1  0
 12 33  1  0
 13 34  1  0
 14 35  1  0
 16 36  1  0
 17 37  1  0
 21 38  1  0
 22 39  1  0
M  END
>  <Energy>  (437) 
1694.1473309724006

>  <compound_id>  (437) 
8674

>  <target_id>  (437) 
1

>  <reference_id>  (437) 
114

>  <inspiration_ids>  (437) 
[114, 107]

>  <energy_score>  (437) 
1571.4023473805005

>  <distance_score>  (437) 
13.896043928483216

>  <path>  (437) 
/opt/xchem-fragalysis-2/maxwin/BulkDock/SCRATCH/511022/C8674-P114/C8674-P114.minimised.mol

>  <scratch_subdir>  (437) 
/opt/xchem-fragalysis-2/maxwin/BulkDock/SCRATCH/511022/C8674-P114

>  <fragmenstein_runtime>  (437) 
13.076335191726685

>  <fragmenstein_outcome>  (437) 
too moved

>  <fragmenstein_mode>  (437) 
expansion

>  <fragmenstein_error>  (437) 


$$$$
C8674-P107
     RDKit          3D

 39 42  0  0  0  0  0  0  0  0999 V2000
    0.6744  -14.1784   23.9921 C   0  0  0  0  0  0  0  0  0  0  0  0
    1.6829  -13.0257   24.7014 N   0  0  0  0  0  0  0  0  0  0  0  0
    1.3267  -11.7035   23.3119 C   0  0  0  0  0  0  0  0  0  0  0  0
    0.0943  -10.4607   22.2786 C   0  0  0  0  0  0  0  0  0  0  0  0
    0.0195   -9.0932   22.4625 N   0  0  0  0  0  0  0  0  0  0  0  0
   -1.2130   -8.6383   22.1326 C   0  0  0  0  0  0  0  0  0  0  0  0
   -1.9359   -7.6471   22.9296 C   0  0  0  0  0  0  0  0  0  0  0  0
   -1.2600   -6.9139   23.9208 C   0  0  0  0  0  0  0  0  0  0  0  0
   -1.9394   -6.0094   24.7391 C   0  0  0  0  0  0  0  0  0  0  0  0
   -3.3108   -5.8276   24.5835 C   0  0  0  0  0  0  0  0  0  0  0  0
   -4.0016   -6.5497   23.6118 C   0  0  0  0  0  0  0  0  0  0  0  0
   -3.3211   -7.4575   22.7933 C   0  0  0  0  0  0  0  0  0  0  0  0
   -1.7113   -9.4687   21.1847 C   0  0  0  0  0  0  0  0  0  0  0  0
   -0.9214  -10.5980   21.2840 N   0  0  0  0  0  0  0  0  0  0  0  0
    1.3131  -13.4034   26.4315 C   0  0  0  0  0  0  0  0  0  0  0  0
    0.5359  -14.4923   26.7957 C   0  0  0  0  0  0  0  0  0  0  0  0
    0.4555  -15.2630   28.0673 C   0  0  0  0  0  0  0  0  0  0  0  0
    0.8960  -14.8497   29.1891 N   0  0  0  0  0  0  0  0  0  0  0  0
    1.2919  -13.5574   29.1354 C   0  0  0  0  0  0  0  0  0  0  0  0
    1.2876  -12.7829   30.1982 N   0  0  0  0  0  0  0  0  0  0  0  0
    1.4085  -11.5239   29.7432 C   0  0  0  0  0  0  0  0  0  0  0  0
    1.5406  -11.5013   28.3801 C   0  0  0  0  0  0  0  0  0  0  0  0
    1.5501  -12.8109   27.8924 N   0  0  0  0  0  0  0  0  0  0  0  0
   -0.0821  -14.5325   24.6703 H   0  0  0  0  0  0  0  0  0  0  0  0
    1.4205  -14.7223   23.3817 H   0  0  0  0  0  0  0  0  0  0  0  0
   -0.0773  -13.9243   23.2384 H   0  0  0  0  0  0  0  0  0  0  0  0
    0.4461  -12.0877   22.8132 H   0  0  0  0  0  0  0  0  0  0  0  0
    2.3188  -11.8466   22.8759 H   0  0  0  0  0  0  0  0  0  0  0  0
   -0.1857   -7.0432   24.0467 H   0  0  0  0  0  0  0  0  0  0  0  0
   -1.3891   -5.4485   25.4899 H   0  0  0  0  0  0  0  0  0  0  0  0
   -3.8396   -5.1195   25.2160 H   0  0  0  0  0  0  0  0  0  0  0  0
   -5.0715   -6.4037   23.4876 H   0  0  0  0  0  0  0  0  0  0  0  0
   -3.8874   -8.0030   22.0444 H   0  0  0  0  0  0  0  0  0  0  0  0
   -2.6145   -9.4807   20.5942 H   0  0  0  0  0  0  0  0  0  0  0  0
   -1.1847  -11.4087   20.7529 H   0  0  0  0  0  0  0  0  0  0  0  0
   -0.4578  -14.5492   26.3372 H   0  0  0  0  0  0  0  0  0  0  0  0
    0.0109  -16.2688   27.9922 H   0  0  0  0  0  0  0  0  0  0  0  0
    1.3799  -10.6776   30.4173 H   0  0  0  0  0  0  0  0  0  0  0  0
    1.6018  -10.6646   27.7292 H   0  0  0  0  0  0  0  0  0  0  0  0
  1  2  1  0
  2  3  1  0
  3  4  1  0
  4  5  2  0
  5  6  1  0
  6  7  1  0
  7  8  2  0
  8  9  1  0
  9 10  2  0
 10 11  1  0
 11 12  2  0
  6 13  2  0
 13 14  1  0
  2 15  1  0
 15 16  2  0
 16 17  1  0
 17 18  2  0
 18 19  1  0
 19 20  2  0
 20 21  1  0
 21 22  2  0
 22 23  1  0
 14  4  1  0
 23 15  1  0
 12  7  1  0
 23 19  1  0
  1 24  1  0
  1 25  1  0
  1 26  1  0
  3 27  1  0
  3 28  1  0
  8 29  1  0
  9 30  1  0
 10 31  1  0
 11 32  1  0
 12 33  1  0
 13 34  1  0
 14 35  1  0
 16 36  1  0
 17 37  1  0
 21 38  1  0
 22 39  1  0
M  END
>  <Energy>  (438) 
501.94762605961171

>  <compound_id>  (438) 
8674

>  <target_id>  (438) 
1

>  <reference_id>  (438) 
107

>  <inspiration_ids>  (438) 
[114, 107]

>  <energy_score>  (438) 
379.20264246768875

>  <distance_score>  (438) 
16.684994341660264

>  <path>  (438) 
/opt/xchem-fragalysis-2/maxwin/BulkDock/SCRATCH/511022/C8674-P107/C8674-P107.minimised.mol

>  <scratch_subdir>  (438) 
/opt/xchem-fragalysis-2/maxwin/BulkDock/SCRATCH/511022/C8674-P107

>  <fragmenstein_runtime>  (438) 
17.05612277984619

>  <fragmenstein_outcome>  (438) 
too moved

>  <fragmenstein_mode>  (438) 
expansion

>  <fragmenstein_error>  (438) 


$$$$
C8673-P114
     RDKit          3D

 44 46  0  0  0  0  0  0  0  0999 V2000
    6.2216  -10.0803   30.1652 C   0  0  0  0  0  0  0  0  0  0  0  0
    6.8266  -11.0073   29.1186 C   0  0  0  0  0  0  0  0  0  0  0  0
    5.7255  -11.5965   28.2058 C   0  0  0  0  0  0  0  0  0  0  0  0
    6.0954  -12.5669   27.1556 N   0  0  0  0  0  0  0  0  0  0  0  0
    7.4542  -12.4903   26.7612 C   0  0  0  0  0  0  0  0  0  0  0  0
    7.3773  -12.0755   25.4844 C   0  0  0  0  0  0  0  0  0  0  0  0
    6.1077  -12.3423   25.0906 N   0  0  0  0  0  0  0  0  0  0  0  0
    5.3269  -13.1209   25.9581 C   0  0  0  0  0  0  0  0  0  0  0  0
    3.5049  -13.9604   25.5575 C   0  0  0  0  0  0  0  0  0  0  0  0
    1.3867  -13.5543   25.5967 C   0  0  0  0  0  0  0  0  0  0  0  0
   -0.4697  -14.1900   24.6660 C   0  0  0  0  0  0  0  0  0  0  0  0
   -2.1931  -14.9354   25.2692 N   0  0  0  0  0  0  0  0  0  0  0  0
   -3.3705  -15.3999   24.3957 C   0  0  0  0  0  0  0  0  0  0  0  0
   -2.9576  -15.0027   26.6561 C   0  0  0  0  0  0  0  0  0  0  0  0
   -3.7405  -13.9480   27.0070 C   0  0  0  0  0  0  0  0  0  0  0  0
   -4.8270  -14.1265   28.0065 C   0  0  0  0  0  0  0  0  0  0  0  0
   -5.2764  -15.2398   28.4744 N   0  0  0  0  0  0  0  0  0  0  0  0
   -4.6325  -16.3526   28.0417 C   0  0  0  0  0  0  0  0  0  0  0  0
   -4.9985  -17.5987   28.2665 N   0  0  0  0  0  0  0  0  0  0  0  0
   -4.0582  -18.3761   27.6743 C   0  0  0  0  0  0  0  0  0  0  0  0
   -3.1296  -17.6035   27.0171 C   0  0  0  0  0  0  0  0  0  0  0  0
   -3.4787  -16.2796   27.2154 N   0  0  0  0  0  0  0  0  0  0  0  0
    5.6840   -9.2521   29.6921 H   0  0  0  0  0  0  0  0  0  0  0  0
    7.0089   -9.6574   30.7971 H   0  0  0  0  0  0  0  0  0  0  0  0
    5.5220  -10.6216   30.8102 H   0  0  0  0  0  0  0  0  0  0  0  0
    7.3878  -11.7927   29.6330 H   0  0  0  0  0  0  0  0  0  0  0  0
    7.5452  -10.4320   28.5229 H   0  0  0  0  0  0  0  0  0  0  0  0
    5.0036  -12.0754   28.8463 H   0  0  0  0  0  0  0  0  0  0  0  0
    5.3079  -10.7256   27.6954 H   0  0  0  0  0  0  0  0  0  0  0  0
    8.2634  -12.4678   27.4775 H   0  0  0  0  0  0  0  0  0  0  0  0
    8.1218  -11.6475   24.8300 H   0  0  0  0  0  0  0  0  0  0  0  0
    3.7826  -14.4052   24.5892 H   0  0  0  0  0  0  0  0  0  0  0  0
    3.7195  -14.5578   26.4651 H   0  0  0  0  0  0  0  0  0  0  0  0
    1.2524  -13.9357   26.5812 H   0  0  0  0  0  0  0  0  0  0  0  0
    1.2910  -12.4984   25.8540 H   0  0  0  0  0  0  0  0  0  0  0  0
   -0.4611  -14.1155   23.5797 H   0  0  0  0  0  0  0  0  0  0  0  0
   -1.0826  -13.4544   25.2586 H   0  0  0  0  0  0  0  0  0  0  0  0
   -3.4899  -16.4875   24.4708 H   0  0  0  0  0  0  0  0  0  0  0  0
   -4.3205  -14.9768   24.7539 H   0  0  0  0  0  0  0  0  0  0  0  0
   -3.4054  -15.1075   23.3663 H   0  0  0  0  0  0  0  0  0  0  0  0
   -3.7017  -12.9941   26.4989 H   0  0  0  0  0  0  0  0  0  0  0  0
   -5.3034  -13.1880   28.3369 H   0  0  0  0  0  0  0  0  0  0  0  0
   -4.0925  -19.4556   27.7439 H   0  0  0  0  0  0  0  0  0  0  0  0
   -2.2655  -17.8961   26.4507 H   0  0  0  0  0  0  0  0  0  0  0  0
  1  2  1  0
  2  3  1  0
  3  4  1  0
  4  5  1  0
  5  6  2  0
  6  7  1  0
  7  8  2  0
  8  9  1  0
  9 10  1  0
 10 11  1  0
 11 12  1  0
 12 13  1  0
 12 14  1  0
 14 15  2  0
 15 16  1  0
 16 17  2  0
 17 18  1  0
 18 19  2  0
 19 20  1  0
 20 21  2  0
 21 22  1  0
  8  4  1  0
 22 14  1  0
 22 18  1  0
  1 23  1  0
  1 24  1  0
  1 25  1  0
  2 26  1  0
  2 27  1  0
  3 28  1  0
  3 29  1  0
  5 30  1  0
  6 31  1  0
  9 32  1  0
  9 33  1  0
 10 34  1  0
 10 35  1  0
 11 36  1  0
 11 37  1  0
 13 38  1  0
 13 39  1  0
 13 40  1  0
 15 41  1  0
 16 42  1  0
 20 43  1  0
 21 44  1  0
M  END
>  <Energy>  (439) 
625.27009390192916

>  <compound_id>  (439) 
8673

>  <target_id>  (439) 
1

>  <reference_id>  (439) 
114

>  <inspiration_ids>  (439) 
[114, 107]

>  <energy_score>  (439) 
537.7131709724981

>  <distance_score>  (439) 
13.440328935127132

>  <path>  (439) 
/opt/xchem-fragalysis-2/maxwin/BulkDock/SCRATCH/511022/C8673-P114/C8673-P114.minimised.mol

>  <scratch_subdir>  (439) 
/opt/xchem-fragalysis-2/maxwin/BulkDock/SCRATCH/511022/C8673-P114

>  <fragmenstein_runtime>  (439) 
43.47788763046265

>  <fragmenstein_outcome>  (439) 
too moved

>  <fragmenstein_mode>  (439) 
expansion

>  <fragmenstein_error>  (439) 


$$$$
C8673-P107
     RDKit          3D

 44 46  0  0  0  0  0  0  0  0999 V2000
    9.4664  -11.1909   17.7051 C   0  0  0  0  0  0  0  0  0  0  0  0
    8.1853  -10.5944   18.5586 C   0  0  0  0  0  0  0  0  0  0  0  0
    6.3231  -10.9971   18.9250 C   0  0  0  0  0  0  0  0  0  0  0  0
    5.5085  -11.6768   19.9059 N   0  0  0  0  0  0  0  0  0  0  0  0
    6.0050  -11.6721   21.0525 C   0  0  0  0  0  0  0  0  0  0  0  0
    6.6328  -12.7845   20.6810 C   0  0  0  0  0  0  0  0  0  0  0  0
    5.8008  -13.5383   19.8289 N   0  0  0  0  0  0  0  0  0  0  0  0
    4.7077  -12.8695   19.8751 C   0  0  0  0  0  0  0  0  0  0  0  0
    3.2975  -13.4594   20.8064 C   0  0  0  0  0  0  0  0  0  0  0  0
    2.1523  -14.9151   20.0328 C   0  0  0  0  0  0  0  0  0  0  0  0
    0.5679  -16.2458   20.3877 C   0  0  0  0  0  0  0  0  0  0  0  0
   -0.1035  -17.9451   20.1981 N   0  0  0  0  0  0  0  0  0  0  0  0
    0.1400  -18.6351   18.8806 C   0  0  0  0  0  0  0  0  0  0  0  0
   -1.5005  -18.3508   20.6721 C   0  0  0  0  0  0  0  0  0  0  0  0
   -2.6074  -17.8913   20.0342 C   0  0  0  0  0  0  0  0  0  0  0  0
   -3.9540  -18.2589   20.5657 C   0  0  0  0  0  0  0  0  0  0  0  0
   -4.2269  -19.0241   21.5705 N   0  0  0  0  0  0  0  0  0  0  0  0
   -3.1379  -19.5854   22.1680 C   0  0  0  0  0  0  0  0  0  0  0  0
   -3.1537  -20.4137   23.1981 N   0  0  0  0  0  0  0  0  0  0  0  0
   -1.8547  -20.7922   23.3726 C   0  0  0  0  0  0  0  0  0  0  0  0
   -1.0285  -20.1917   22.4488 C   0  0  0  0  0  0  0  0  0  0  0  0
   -1.8089  -19.3242   21.7143 N   0  0  0  0  0  0  0  0  0  0  0  0
    9.8565  -10.4613   16.9898 H   0  0  0  0  0  0  0  0  0  0  0  0
   10.3020  -11.5153   18.3264 H   0  0  0  0  0  0  0  0  0  0  0  0
    9.2446  -11.9491   16.9473 H   0  0  0  0  0  0  0  0  0  0  0  0
    7.9344  -10.3600   17.5481 H   0  0  0  0  0  0  0  0  0  0  0  0
    8.5071   -9.6979   19.0286 H   0  0  0  0  0  0  0  0  0  0  0  0
    5.6744  -10.2259   18.5935 H   0  0  0  0  0  0  0  0  0  0  0  0
    5.9669  -11.7086   18.2474 H   0  0  0  0  0  0  0  0  0  0  0  0
    6.0916  -11.0132   21.8827 H   0  0  0  0  0  0  0  0  0  0  0  0
    7.6384  -13.0864   20.9295 H   0  0  0  0  0  0  0  0  0  0  0  0
    3.2347  -12.6988   21.5953 H   0  0  0  0  0  0  0  0  0  0  0  0
    3.3802  -14.0864   21.6741 H   0  0  0  0  0  0  0  0  0  0  0  0
    2.4878  -14.9439   18.9617 H   0  0  0  0  0  0  0  0  0  0  0  0
    2.5661  -15.4288   20.7082 H   0  0  0  0  0  0  0  0  0  0  0  0
   -0.4039  -15.9741   19.9747 H   0  0  0  0  0  0  0  0  0  0  0  0
    0.2809  -16.1038   21.4165 H   0  0  0  0  0  0  0  0  0  0  0  0
    0.3126  -19.6998   19.0794 H   0  0  0  0  0  0  0  0  0  0  0  0
    0.9999  -18.2727   18.3187 H   0  0  0  0  0  0  0  0  0  0  0  0
   -0.7309  -18.5679   18.2211 H   0  0  0  0  0  0  0  0  0  0  0  0
   -2.5614  -17.1941   19.2118 H   0  0  0  0  0  0  0  0  0  0  0  0
   -4.7944  -17.7892   20.0279 H   0  0  0  0  0  0  0  0  0  0  0  0
   -1.5680  -21.4900   24.1473 H   0  0  0  0  0  0  0  0  0  0  0  0
    0.0361  -20.2450   22.2811 H   0  0  0  0  0  0  0  0  0  0  0  0
  1  2  1  0
  2  3  1  0
  3  4  1  0
  4  5  1  0
  5  6  2  0
  6  7  1  0
  7  8  2  0
  8  9  1  0
  9 10  1  0
 10 11  1  0
 11 12  1  0
 12 13  1  0
 12 14  1  0
 14 15  2  0
 15 16  1  0
 16 17  2  0
 17 18  1  0
 18 19  2  0
 19 20  1  0
 20 21  2  0
 21 22  1  0
  8  4  1  0
 22 14  1  0
 22 18  1  0
  1 23  1  0
  1 24  1  0
  1 25  1  0
  2 26  1  0
  2 27  1  0
  3 28  1  0
  3 29  1  0
  5 30  1  0
  6 31  1  0
  9 32  1  0
  9 33  1  0
 10 34  1  0
 10 35  1  0
 11 36  1  0
 11 37  1  0
 13 38  1  0
 13 39  1  0
 13 40  1  0
 15 41  1  0
 16 42  1  0
 20 43  1  0
 21 44  1  0
M  END
>  <Energy>  (440) 
625.51343955900916

>  <compound_id>  (440) 
8673

>  <target_id>  (440) 
1

>  <reference_id>  (440) 
107

>  <inspiration_ids>  (440) 
[114, 107]

>  <energy_score>  (440) 
537.9565166295827

>  <distance_score>  (440) 
13.750827210503294

>  <path>  (440) 
/opt/xchem-fragalysis-2/maxwin/BulkDock/SCRATCH/511022/C8673-P107/C8673-P107.minimised.mol

>  <scratch_subdir>  (440) 
/opt/xchem-fragalysis-2/maxwin/BulkDock/SCRATCH/511022/C8673-P107

>  <fragmenstein_runtime>  (440) 
26.82708764076233

>  <fragmenstein_outcome>  (440) 
too moved

>  <fragmenstein_mode>  (440) 
expansion

>  <fragmenstein_error>  (440) 


$$$$
C76441-P24
     RDKit          3D

 45 47  0  0  0  0  0  0  0  0999 V2000
  -12.2512   -2.6850   18.0563 C   0  0  0  0  0  0  0  0  0  0  0  0
  -12.5147   -1.2981   17.6406 N   0  0  0  0  0  0  0  0  0  0  0  0
  -13.5945   -0.7818   18.4968 C   0  0  0  0  0  0  0  0  0  0  0  0
  -12.8592   -1.1808   16.1729 C   0  0  0  0  0  0  0  0  0  0  0  0
  -12.6144    0.2456   15.5409 C   0  0  0  0  0  0  0  0  0  0  0  0
  -12.9504    0.5084   14.0968 N   0  0  0  0  0  0  0  0  0  0  0  0
  -12.9896    1.8733   13.6259 C   0  0  0  0  0  0  0  0  0  0  0  0
  -13.6285    1.9479   12.2095 C   0  0  0  0  0  0  0  0  0  0  0  0
  -12.7552    1.6006   11.0352 N   0  0  0  0  0  0  0  0  0  0  0  0
  -11.3355    1.8880   10.7840 C   0  0  0  0  0  0  0  0  0  0  0  0
  -10.5290    2.3795   11.4806 O   0  0  0  0  0  0  0  0  0  0  0  0
  -11.2159    1.3554    9.4111 N   0  0  0  0  0  0  0  0  0  0  0  0
  -10.0915    1.1982    8.5823 C   0  0  0  0  0  0  0  0  0  0  0  0
  -10.2312    0.8924    7.2170 C   0  0  0  0  0  0  0  0  0  0  0  0
   -9.2011    0.7020    6.3440 N   0  0  0  0  0  0  0  0  0  0  0  0
   -7.9908    0.7819    6.9088 C   0  0  0  0  0  0  0  0  0  0  0  0
   -7.7409    1.0532    8.2254 C   0  0  0  0  0  0  0  0  0  0  0  0
   -8.7923    1.2925    9.0883 C   0  0  0  0  0  0  0  0  0  0  0  0
   -6.4181    1.0251    8.5242 O   0  0  0  0  0  0  0  0  0  0  0  0
   -5.8592    0.6880    7.2383 C   0  0  0  0  0  0  0  0  0  0  0  0
   -6.8390    0.5596    6.1918 O   0  0  0  0  0  0  0  0  0  0  0  0
  -12.9159    0.1833   11.6165 C   0  0  0  0  0  0  0  0  0  0  0  0
  -12.7882   -0.3893   13.0687 C   0  0  0  0  0  0  0  0  0  0  0  0
  -12.7069   -1.5967   13.2487 O   0  0  0  0  0  0  0  0  0  0  0  0
  -11.6774   -3.2076   17.2921 H   0  0  0  0  0  0  0  0  0  0  0  0
  -13.1817   -3.2527   18.1778 H   0  0  0  0  0  0  0  0  0  0  0  0
  -11.7014   -2.7053   19.0018 H   0  0  0  0  0  0  0  0  0  0  0  0
  -13.4277   -0.9860   19.5608 H   0  0  0  0  0  0  0  0  0  0  0  0
  -13.6865    0.3030   18.3804 H   0  0  0  0  0  0  0  0  0  0  0  0
  -14.5608   -1.2309   18.2368 H   0  0  0  0  0  0  0  0  0  0  0  0
  -12.2241   -1.8837   15.6258 H   0  0  0  0  0  0  0  0  0  0  0  0
  -13.8951   -1.4941   15.9945 H   0  0  0  0  0  0  0  0  0  0  0  0
  -13.1977    0.9732   16.1171 H   0  0  0  0  0  0  0  0  0  0  0  0
  -11.5564    0.5063   15.6600 H   0  0  0  0  0  0  0  0  0  0  0  0
  -11.9742    2.2813   13.6386 H   0  0  0  0  0  0  0  0  0  0  0  0
  -13.6067    2.4501   14.3235 H   0  0  0  0  0  0  0  0  0  0  0  0
  -13.7969    3.0227   12.0467 H   0  0  0  0  0  0  0  0  0  0  0  0
  -14.6427    1.5182   12.1469 H   0  0  0  0  0  0  0  0  0  0  0  0
  -12.1304    1.0805    9.0806 H   0  0  0  0  0  0  0  0  0  0  0  0
  -11.2153    0.7941    6.7669 H   0  0  0  0  0  0  0  0  0  0  0  0
   -8.6037    1.4997   10.1327 H   0  0  0  0  0  0  0  0  0  0  0  0
   -5.1441    1.4690    6.9545 H   0  0  0  0  0  0  0  0  0  0  0  0
   -5.3179   -0.2611    7.3313 H   0  0  0  0  0  0  0  0  0  0  0  0
  -12.1566   -0.4052   11.0772 H   0  0  0  0  0  0  0  0  0  0  0  0
  -13.8703   -0.2029   11.2174 H   0  0  0  0  0  0  0  0  0  0  0  0
  1  2  1  0
  2  3  1  0
  2  4  1  0
  4  5  1  0
  5  6  1  0
  6  7  1  0
  7  8  1  0
  8  9  1  0
  9 10  1  0
 10 11  2  0
 10 12  1  0
 12 13  1  0
 13 14  2  0
 14 15  1  0
 15 16  2  0
 16 17  1  0
 17 18  2  0
 17 19  1  0
 19 20  1  0
 20 21  1  0
  9 22  1  0
 22 23  1  0
 23 24  2  0
 23  6  1  0
 18 13  1  0
 21 16  1  0
  1 25  1  0
  1 26  1  0
  1 27  1  0
  3 28  1  0
  3 29  1  0
  3 30  1  0
  4 31  1  0
  4 32  1  0
  5 33  1  0
  5 34  1  0
  7 35  1  0
  7 36  1  0
  8 37  1  0
  8 38  1  0
 12 39  1  0
 14 40  1  0
 18 41  1  0
 20 42  1  0
 20 43  1  0
 22 44  1  0
 22 45  1  0
M  END
>  <Energy>  (441) 
114.96428779464601

>  <compound_id>  (441) 
76441

>  <target_id>  (441) 
1

>  <reference_id>  (441) 
24

>  <inspiration_ids>  (441) 
[24, 13]

>  <energy_score>  (441) 
31.146666514387334

>  <distance_score>  (441) 
9.587605783141518

>  <path>  (441) 
/opt/xchem-fragalysis-2/maxwin/BulkDock/SCRATCH/511022/C76441-P24/C76441-P24.minimised.mol

>  <scratch_subdir>  (441) 
/opt/xchem-fragalysis-2/maxwin/BulkDock/SCRATCH/511022/C76441-P24

>  <fragmenstein_runtime>  (441) 
20.197115659713745

>  <fragmenstein_outcome>  (441) 
too moved

>  <fragmenstein_mode>  (441) 
expansion

>  <fragmenstein_error>  (441) 


$$$$
C76441-P13
     RDKit          3D

 45 47  0  0  0  0  0  0  0  0999 V2000
   -6.0755   -4.0934   20.2640 C   0  0  0  0  0  0  0  0  0  0  0  0
   -4.8949   -4.3148   19.3381 N   0  0  0  0  0  0  0  0  0  0  0  0
   -4.3250   -4.8176   20.6108 C   0  0  0  0  0  0  0  0  0  0  0  0
   -4.7632   -4.7695   17.4503 C   0  0  0  0  0  0  0  0  0  0  0  0
   -5.0276   -4.4510   15.4394 C   0  0  0  0  0  0  0  0  0  0  0  0
   -5.7760   -3.6842   13.8057 N   0  0  0  0  0  0  0  0  0  0  0  0
   -5.7828   -4.7954   12.1261 C   0  0  0  0  0  0  0  0  0  0  0  0
   -7.0320   -4.0712   10.7207 C   0  0  0  0  0  0  0  0  0  0  0  0
   -6.7532   -2.1322    9.7062 N   0  0  0  0  0  0  0  0  0  0  0  0
   -7.8857   -1.3036    8.7783 C   0  0  0  0  0  0  0  0  0  0  0  0
   -9.0215   -1.5017    8.5984 O   0  0  0  0  0  0  0  0  0  0  0  0
   -6.9975   -0.3296    8.1999 N   0  0  0  0  0  0  0  0  0  0  0  0
   -7.2034    0.5977    7.1956 C   0  0  0  0  0  0  0  0  0  0  0  0
   -6.2606    1.6181    7.0761 C   0  0  0  0  0  0  0  0  0  0  0  0
   -6.1466    2.4949    6.0581 N   0  0  0  0  0  0  0  0  0  0  0  0
   -7.0926    2.3091    5.1344 C   0  0  0  0  0  0  0  0  0  0  0  0
   -8.0943    1.3667    5.1758 C   0  0  0  0  0  0  0  0  0  0  0  0
   -8.1940    0.4909    6.2333 C   0  0  0  0  0  0  0  0  0  0  0  0
   -8.8782    1.3941    4.0724 O   0  0  0  0  0  0  0  0  0  0  0  0
   -8.2513    2.4581    3.3274 C   0  0  0  0  0  0  0  0  0  0  0  0
   -7.1269    3.0614    3.9879 O   0  0  0  0  0  0  0  0  0  0  0  0
   -6.6799   -1.1858   11.6668 C   0  0  0  0  0  0  0  0  0  0  0  0
   -6.0344   -1.7964   13.7085 C   0  0  0  0  0  0  0  0  0  0  0  0
   -6.1295   -1.0221   14.6062 O   0  0  0  0  0  0  0  0  0  0  0  0
   -6.3948   -5.0436   20.7005 H   0  0  0  0  0  0  0  0  0  0  0  0
   -6.8296   -3.4038   19.9833 H   0  0  0  0  0  0  0  0  0  0  0  0
   -5.9540   -3.6347   21.2583 H   0  0  0  0  0  0  0  0  0  0  0  0
   -4.2366   -4.0901   21.4363 H   0  0  0  0  0  0  0  0  0  0  0  0
   -4.7944   -5.5807   21.2429 H   0  0  0  0  0  0  0  0  0  0  0  0
   -3.3917   -5.1704   20.3857 H   0  0  0  0  0  0  0  0  0  0  0  0
   -4.9423   -3.7695   17.3898 H   0  0  0  0  0  0  0  0  0  0  0  0
   -5.4256   -5.6173   17.3657 H   0  0  0  0  0  0  0  0  0  0  0  0
   -4.2633   -5.0062   15.0395 H   0  0  0  0  0  0  0  0  0  0  0  0
   -4.6545   -3.5231   15.7262 H   0  0  0  0  0  0  0  0  0  0  0  0
   -6.6307   -5.4628   12.3919 H   0  0  0  0  0  0  0  0  0  0  0  0
   -4.8913   -5.4147   11.7830 H   0  0  0  0  0  0  0  0  0  0  0  0
   -7.9945   -4.5592   11.3174 H   0  0  0  0  0  0  0  0  0  0  0  0
   -7.2179   -4.8450    9.8710 H   0  0  0  0  0  0  0  0  0  0  0  0
   -6.0960   -0.3937    8.6517 H   0  0  0  0  0  0  0  0  0  0  0  0
   -5.5244    1.7267    7.8545 H   0  0  0  0  0  0  0  0  0  0  0  0
   -8.9508   -0.2845    6.2577 H   0  0  0  0  0  0  0  0  0  0  0  0
   -7.9168    2.0563    2.3636 H   0  0  0  0  0  0  0  0  0  0  0  0
   -9.0011    3.2344    3.1354 H   0  0  0  0  0  0  0  0  0  0  0  0
   -6.0521   -0.2931   11.4736 H   0  0  0  0  0  0  0  0  0  0  0  0
   -7.6327   -0.6577   11.7802 H   0  0  0  0  0  0  0  0  0  0  0  0
  1  2  1  0
  2  3  1  0
  2  4  1  0
  4  5  1  0
  5  6  1  0
  6  7  1  0
  7  8  1  0
  8  9  1  0
  9 10  1  0
 10 11  2  0
 10 12  1  0
 12 13  1  0
 13 14  2  0
 14 15  1  0
 15 16  2  0
 16 17  1  0
 17 18  2  0
 17 19  1  0
 19 20  1  0
 20 21  1  0
  9 22  1  0
 22 23  1  0
 23 24  2  0
 23  6  1  0
 18 13  1  0
 21 16  1  0
  1 25  1  0
  1 26  1  0
  1 27  1  0
  3 28  1  0
  3 29  1  0
  3 30  1  0
  4 31  1  0
  4 32  1  0
  5 33  1  0
  5 34  1  0
  7 35  1  0
  7 36  1  0
  8 37  1  0
  8 38  1  0
 12 39  1  0
 14 40  1  0
 18 41  1  0
 20 42  1  0
 20 43  1  0
 22 44  1  0
 22 45  1  0
M  END
>  <Energy>  (442) 
1190.3072296628525

>  <compound_id>  (442) 
76441

>  <target_id>  (442) 
1

>  <reference_id>  (442) 
13

>  <inspiration_ids>  (442) 
[24, 13]

>  <energy_score>  (442) 
1106.4896083825874

>  <distance_score>  (442) 
6.701660222929727

>  <path>  (442) 
/opt/xchem-fragalysis-2/maxwin/BulkDock/SCRATCH/511022/C76441-P13/C76441-P13.minimised.mol

>  <scratch_subdir>  (442) 
/opt/xchem-fragalysis-2/maxwin/BulkDock/SCRATCH/511022/C76441-P13

>  <fragmenstein_runtime>  (442) 
18.804802656173706

>  <fragmenstein_outcome>  (442) 
too moved

>  <fragmenstein_mode>  (442) 
expansion

>  <fragmenstein_error>  (442) 


$$$$
C76480-P24
     RDKit          3D

 48 48  0  0  0  0  0  0  0  0999 V2000
   -3.9710   -0.0701   11.6466 C   0  0  0  0  0  0  0  0  0  0  0  0
   -3.3824   -0.1263   13.1918 C   0  0  0  0  0  0  0  0  0  0  0  0
   -2.2372    1.6372   13.6197 C   0  0  0  0  0  0  0  0  0  0  0  0
   -5.2494   -0.5157   14.3009 C   0  0  0  0  0  0  0  0  0  0  0  0
   -5.2236    0.4556   15.4410 C   0  0  0  0  0  0  0  0  0  0  0  0
   -4.4535    0.2216   17.5244 C   0  0  0  0  0  0  0  0  0  0  0  0
   -3.8079   -0.9400   19.4260 C   0  0  0  0  0  0  0  0  0  0  0  0
   -3.0611   -0.3771   21.5263 C   0  0  0  0  0  0  0  0  0  0  0  0
   -4.1710   -0.4123   21.2868 C   0  0  0  0  0  0  0  0  0  0  0  0
   -6.2948    1.0274   13.8557 N   0  0  0  0  0  0  0  0  0  0  0  0
   -6.5187    0.2605   12.1995 C   0  0  0  0  0  0  0  0  0  0  0  0
   -6.0316   -0.7394   12.0944 O   0  0  0  0  0  0  0  0  0  0  0  0
   -7.3656    0.7100   10.5310 C   0  0  0  0  0  0  0  0  0  0  0  0
   -6.5295    0.9593    9.6991 O   0  0  0  0  0  0  0  0  0  0  0  0
   -8.8021    0.6066   10.3747 N   0  0  0  0  0  0  0  0  0  0  0  0
   -9.6653    0.6601    9.1455 C   0  0  0  0  0  0  0  0  0  0  0  0
  -11.0950    0.1842    9.3735 C   0  0  0  0  0  0  0  0  0  0  0  0
  -11.7674    1.1546   10.1778 N   0  0  0  0  0  0  0  0  0  0  0  0
  -11.0045    2.0145   10.9178 C   0  0  0  0  0  0  0  0  0  0  0  0
  -11.5227    2.8213   11.6796 O   0  0  0  0  0  0  0  0  0  0  0  0
   -9.4815    1.9858   10.6224 C   0  0  0  0  0  0  0  0  0  0  0  0
   -3.6684    0.3426   10.6590 H   0  0  0  0  0  0  0  0  0  0  0  0
   -4.4498   -0.8133   11.1248 H   0  0  0  0  0  0  0  0  0  0  0  0
   -4.6632    0.4422   12.1017 H   0  0  0  0  0  0  0  0  0  0  0  0
   -2.6661   -0.9335   13.0263 H   0  0  0  0  0  0  0  0  0  0  0  0
   -2.1935    2.6638   13.2073 H   0  0  0  0  0  0  0  0  0  0  0  0
   -2.2026    1.7868   14.7250 H   0  0  0  0  0  0  0  0  0  0  0  0
   -1.1762    1.4583   13.3075 H   0  0  0  0  0  0  0  0  0  0  0  0
   -5.4253   -1.5332   14.7862 H   0  0  0  0  0  0  0  0  0  0  0  0
   -6.1306   -0.9189   13.8438 H   0  0  0  0  0  0  0  0  0  0  0  0
   -6.2970   -0.1290   15.3236 H   0  0  0  0  0  0  0  0  0  0  0  0
   -3.7638    1.0724   17.3641 H   0  0  0  0  0  0  0  0  0  0  0  0
   -5.3242    0.8788   17.9668 H   0  0  0  0  0  0  0  0  0  0  0  0
   -3.8812   -2.0268   19.2476 H   0  0  0  0  0  0  0  0  0  0  0  0
   -2.3233    0.4685   21.8628 H   0  0  0  0  0  0  0  0  0  0  0  0
   -3.0382   -0.9681   22.5835 H   0  0  0  0  0  0  0  0  0  0  0  0
   -2.3504   -1.3796   22.0031 H   0  0  0  0  0  0  0  0  0  0  0  0
   -4.3293    0.6124   21.8473 H   0  0  0  0  0  0  0  0  0  0  0  0
   -3.8827   -1.8133   21.8159 H   0  0  0  0  0  0  0  0  0  0  0  0
   -4.7620    0.0661   20.6653 H   0  0  0  0  0  0  0  0  0  0  0  0
   -6.8202    1.8556   13.8825 H   0  0  0  0  0  0  0  0  0  0  0  0
   -9.2086   -0.1315    8.5297 H   0  0  0  0  0  0  0  0  0  0  0  0
   -9.5447    1.5229    8.4681 H   0  0  0  0  0  0  0  0  0  0  0  0
  -11.1204   -0.7699    9.9087 H   0  0  0  0  0  0  0  0  0  0  0  0
  -11.6394    0.0792    8.4309 H   0  0  0  0  0  0  0  0  0  0  0  0
  -12.7595    1.1134   10.3742 H   0  0  0  0  0  0  0  0  0  0  0  0
   -9.2081    2.7464    9.8704 H   0  0  0  0  0  0  0  0  0  0  0  0
   -9.0503    2.4256   11.5134 H   0  0  0  0  0  0  0  0  0  0  0  0
  1  2  1  0
  2  3  1  0
  2  4  1  0
  4  5  1  0
  5  6  1  0
  6  7  1  0
  7  8  1  0
  7  9  1  0
  5 10  1  0
 10 11  1  0
 11 12  2  0
 11 13  1  0
 13 14  2  0
 13 15  1  0
 15 16  1  0
 16 17  1  0
 17 18  1  0
 18 19  1  0
 19 20  2  0
 19 21  1  0
 21 15  1  0
  1 22  1  0
  1 23  1  0
  1 24  1  0
  2 25  1  0
  3 26  1  0
  3 27  1  0
  3 28  1  0
  4 29  1  0
  4 30  1  0
  5 31  1  0
  6 32  1  0
  6 33  1  0
  7 34  1  0
  8 35  1  0
  8 36  1  0
  8 37  1  0
  9 38  1  0
  9 39  1  0
  9 40  1  0
 10 41  1  0
 16 42  1  0
 16 43  1  0
 17 44  1  0
 17 45  1  0
 18 46  1  0
 21 47  1  0
 21 48  1  0
M  END
>  <Energy>  (443) 
2052.1006772310793

>  <compound_id>  (443) 
76480

>  <target_id>  (443) 
1

>  <reference_id>  (443) 
24

>  <inspiration_ids>  (443) 
[24, 13]

>  <energy_score>  (443) 
1918.70370178835

>  <distance_score>  (443) 
7.781131540227863

>  <path>  (443) 
/opt/xchem-fragalysis-2/maxwin/BulkDock/SCRATCH/511022/C76480-P24/C76480-P24.minimised.mol

>  <scratch_subdir>  (443) 
/opt/xchem-fragalysis-2/maxwin/BulkDock/SCRATCH/511022/C76480-P24

>  <fragmenstein_runtime>  (443) 
20.023765325546265

>  <fragmenstein_outcome>  (443) 
too moved

>  <fragmenstein_mode>  (443) 
expansion

>  <fragmenstein_error>  (443) 


$$$$
C76480-P13
     RDKit          3D

 48 48  0  0  0  0  0  0  0  0999 V2000
   -3.1186    1.4013    8.8228 C   0  0  0  0  0  0  0  0  0  0  0  0
   -2.8133    0.0685    9.7508 C   0  0  0  0  0  0  0  0  0  0  0  0
   -4.3373   -0.4484    9.5867 C   0  0  0  0  0  0  0  0  0  0  0  0
   -1.6736   -0.3581   11.5845 C   0  0  0  0  0  0  0  0  0  0  0  0
   -0.1804   -1.2608   11.5041 C   0  0  0  0  0  0  0  0  0  0  0  0
    0.3782   -2.4147   12.4409 C   0  0  0  0  0  0  0  0  0  0  0  0
    1.1233   -2.0663   13.8836 C   0  0  0  0  0  0  0  0  0  0  0  0
    2.2964   -3.0476   14.0990 C   0  0  0  0  0  0  0  0  0  0  0  0
    1.7340   -0.6837   14.1732 C   0  0  0  0  0  0  0  0  0  0  0  0
   -0.2492   -1.2078    9.8587 N   0  0  0  0  0  0  0  0  0  0  0  0
   -1.6699   -1.7662    8.6502 C   0  0  0  0  0  0  0  0  0  0  0  0
   -2.6530   -2.3140    9.0416 O   0  0  0  0  0  0  0  0  0  0  0  0
   -1.7866   -1.5934    7.1319 C   0  0  0  0  0  0  0  0  0  0  0  0
   -0.8046   -1.7269    6.4571 O   0  0  0  0  0  0  0  0  0  0  0  0
   -3.2546   -1.3651    6.7235 N   0  0  0  0  0  0  0  0  0  0  0  0
   -3.8795   -1.1273    5.3326 C   0  0  0  0  0  0  0  0  0  0  0  0
   -5.3509   -0.6767    5.3949 C   0  0  0  0  0  0  0  0  0  0  0  0
   -6.1653   -1.6630    6.0178 N   0  0  0  0  0  0  0  0  0  0  0  0
   -5.5702   -2.7280    6.6241 C   0  0  0  0  0  0  0  0  0  0  0  0
   -6.2739   -3.6599    6.9922 O   0  0  0  0  0  0  0  0  0  0  0  0
   -4.0054   -2.7439    6.5684 C   0  0  0  0  0  0  0  0  0  0  0  0
   -2.2923    1.4909    8.1704 H   0  0  0  0  0  0  0  0  0  0  0  0
   -3.1455    2.4552    9.0957 H   0  0  0  0  0  0  0  0  0  0  0  0
   -4.0474    1.2741    8.2937 H   0  0  0  0  0  0  0  0  0  0  0  0
   -2.2717   -0.1610    8.8904 H   0  0  0  0  0  0  0  0  0  0  0  0
   -5.0559    0.0576    8.9345 H   0  0  0  0  0  0  0  0  0  0  0  0
   -4.4488   -1.4357    9.1656 H   0  0  0  0  0  0  0  0  0  0  0  0
   -4.7080   -0.3529   10.6008 H   0  0  0  0  0  0  0  0  0  0  0  0
   -2.3002   -0.8263   12.3603 H   0  0  0  0  0  0  0  0  0  0  0  0
   -1.4336    0.5241   12.1939 H   0  0  0  0  0  0  0  0  0  0  0  0
    0.5497   -0.6832   12.0162 H   0  0  0  0  0  0  0  0  0  0  0  0
    1.1605   -2.9201   11.8601 H   0  0  0  0  0  0  0  0  0  0  0  0
   -0.4063   -3.1359   12.6887 H   0  0  0  0  0  0  0  0  0  0  0  0
    0.3714   -2.2394   14.6514 H   0  0  0  0  0  0  0  0  0  0  0  0
    2.0055   -4.0801   13.8796 H   0  0  0  0  0  0  0  0  0  0  0  0
    3.1138   -2.8182   13.4037 H   0  0  0  0  0  0  0  0  0  0  0  0
    2.7110   -2.9776   15.1104 H   0  0  0  0  0  0  0  0  0  0  0  0
    2.6639   -0.5480   13.6080 H   0  0  0  0  0  0  0  0  0  0  0  0
    1.1047    0.1560   13.8954 H   0  0  0  0  0  0  0  0  0  0  0  0
    1.9771   -0.5854   15.2370 H   0  0  0  0  0  0  0  0  0  0  0  0
    0.5237   -0.8453    9.3239 H   0  0  0  0  0  0  0  0  0  0  0  0
   -3.3538   -0.2924    4.8699 H   0  0  0  0  0  0  0  0  0  0  0  0
   -3.6669   -1.8933    4.5697 H   0  0  0  0  0  0  0  0  0  0  0  0
   -5.7397   -0.5013    4.3871 H   0  0  0  0  0  0  0  0  0  0  0  0
   -5.4713    0.2449    5.9703 H   0  0  0  0  0  0  0  0  0  0  0  0
   -7.1795   -1.6457    6.0065 H   0  0  0  0  0  0  0  0  0  0  0  0
   -3.6862   -3.3730    7.3998 H   0  0  0  0  0  0  0  0  0  0  0  0
   -3.7531   -3.3525    5.6951 H   0  0  0  0  0  0  0  0  0  0  0  0
  1  2  1  0
  2  3  1  0
  2  4  1  0
  4  5  1  0
  5  6  1  0
  6  7  1  0
  7  8  1  0
  7  9  1  0
  5 10  1  0
 10 11  1  0
 11 12  2  0
 11 13  1  0
 13 14  2  0
 13 15  1  0
 15 16  1  0
 16 17  1  0
 17 18  1  0
 18 19  1  0
 19 20  2  0
 19 21  1  0
 21 15  1  0
  1 22  1  0
  1 23  1  0
  1 24  1  0
  2 25  1  0
  3 26  1  0
  3 27  1  0
  3 28  1  0
  4 29  1  0
  4 30  1  0
  5 31  1  0
  6 32  1  0
  6 33  1  0
  7 34  1  0
  8 35  1  0
  8 36  1  0
  8 37  1  0
  9 38  1  0
  9 39  1  0
  9 40  1  0
 10 41  1  0
 16 42  1  0
 16 43  1  0
 17 44  1  0
 17 45  1  0
 18 46  1  0
 21 47  1  0
 21 48  1  0
M  END
>  <Energy>  (444) 
610.52940615409113

>  <compound_id>  (444) 
76480

>  <target_id>  (444) 
1

>  <reference_id>  (444) 
13

>  <inspiration_ids>  (444) 
[24, 13]

>  <energy_score>  (444) 
477.1324307113259

>  <distance_score>  (444) 
9.374068672748745

>  <path>  (444) 
/opt/xchem-fragalysis-2/maxwin/BulkDock/SCRATCH/511022/C76480-P13/C76480-P13.minimised.mol

>  <scratch_subdir>  (444) 
/opt/xchem-fragalysis-2/maxwin/BulkDock/SCRATCH/511022/C76480-P13

>  <fragmenstein_runtime>  (444) 
19.48301410675049

>  <fragmenstein_outcome>  (444) 
too moved

>  <fragmenstein_mode>  (444) 
expansion

>  <fragmenstein_error>  (444) 


$$$$
C11942-P80
     RDKit          3D

 38 39  0  0  0  0  0  0  0  0999 V2000
    5.5286    0.2597   29.2373 C   0  0  0  0  0  0  0  0  0  0  0  0
    5.9839    0.3323   27.6939 C   0  0  0  0  0  0  0  0  0  0  0  0
    4.9091   -0.5301   26.9258 C   0  0  0  0  0  0  0  0  0  0  0  0
    3.5423   -0.4200   27.4417 N   0  0  0  0  0  0  0  0  0  0  0  0
    2.7486   -1.3495   28.3907 C   0  0  0  0  0  0  0  0  0  0  0  0
    3.0856   -2.3057   28.9696 O   0  0  0  0  0  0  0  0  0  0  0  0
    1.3591   -0.8585   28.6301 C   0  0  0  0  0  0  0  0  0  0  0  0
    0.2880   -1.7323   28.4522 C   0  0  0  0  0  0  0  0  0  0  0  0
   -0.9855   -1.2558   28.6901 C   0  0  0  0  0  0  0  0  0  0  0  0
   -1.2471   -0.0022   29.1149 N   0  0  0  0  0  0  0  0  0  0  0  0
   -0.1872    0.8019   29.3426 C   0  0  0  0  0  0  0  0  0  0  0  0
    1.1238    0.4239   29.1230 C   0  0  0  0  0  0  0  0  0  0  0  0
    7.4390   -0.0482   27.1818 N   0  0  0  0  0  0  0  0  0  0  0  0
    8.6603    0.9002   26.6855 C   0  0  0  0  0  0  0  0  0  0  0  0
    8.7557    2.0835   26.6734 O   0  0  0  0  0  0  0  0  0  0  0  0
    9.9071    0.0082   25.9926 C   0  0  0  0  0  0  0  0  0  0  0  0
   10.6829    0.5129   24.5516 C   0  0  0  0  0  0  0  0  0  0  0  0
   10.2746    1.2469   23.5073 N   0  0  0  0  0  0  0  0  0  0  0  0
   11.3740    1.4387   22.6879 C   0  0  0  0  0  0  0  0  0  0  0  0
   12.4325    0.6928   23.1186 C   0  0  0  0  0  0  0  0  0  0  0  0
   11.9528    0.0264   24.2205 N   0  0  0  0  0  0  0  0  0  0  0  0
    5.4879   -0.7803   29.5742 H   0  0  0  0  0  0  0  0  0  0  0  0
    4.5722    0.7607   29.4057 H   0  0  0  0  0  0  0  0  0  0  0  0
    6.2868    0.7718   29.8390 H   0  0  0  0  0  0  0  0  0  0  0  0
    5.8719    1.3822   27.3965 H   0  0  0  0  0  0  0  0  0  0  0  0
    5.1876   -1.5858   26.9981 H   0  0  0  0  0  0  0  0  0  0  0  0
    4.8688   -0.2583   25.8701 H   0  0  0  0  0  0  0  0  0  0  0  0
    2.9180    0.2725   27.0462 H   0  0  0  0  0  0  0  0  0  0  0  0
    0.4511   -2.7477   28.1082 H   0  0  0  0  0  0  0  0  0  0  0  0
   -1.8544   -1.8888   28.5329 H   0  0  0  0  0  0  0  0  0  0  0  0
   -0.4271    1.7961   29.7077 H   0  0  0  0  0  0  0  0  0  0  0  0
    1.9389    1.1087   29.3267 H   0  0  0  0  0  0  0  0  0  0  0  0
    7.7199   -1.0231   27.1297 H   0  0  0  0  0  0  0  0  0  0  0  0
    9.5490   -1.0090   25.8002 H   0  0  0  0  0  0  0  0  0  0  0  0
   10.7024   -0.0341   26.7468 H   0  0  0  0  0  0  0  0  0  0  0  0
   11.3588    2.1399   21.8687 H   0  0  0  0  0  0  0  0  0  0  0  0
   13.4388    0.5534   22.7533 H   0  0  0  0  0  0  0  0  0  0  0  0
   12.4729   -0.6412   24.7696 H   0  0  0  0  0  0  0  0  0  0  0  0
  1  2  1  0
  2  3  1  0
  3  4  1  0
  4  5  1  0
  5  6  2  0
  5  7  1  0
  7  8  2  0
  8  9  1  0
  9 10  2  0
 10 11  1  0
 11 12  2  0
  2 13  1  0
 13 14  1  0
 14 15  2  0
 14 16  1  0
 16 17  1  0
 17 18  2  0
 18 19  1  0
 19 20  2  0
 20 21  1  0
 12  7  1  0
 21 17  1  0
  1 22  1  0
  1 23  1  0
  1 24  1  0
  2 25  1  0
  3 26  1  0
  3 27  1  0
  4 28  1  0
  8 29  1  0
  9 30  1  0
 11 31  1  0
 12 32  1  0
 13 33  1  0
 16 34  1  0
 16 35  1  0
 19 36  1  0
 20 37  1  0
 21 38  1  0
M  END
>  <Energy>  (445) 
96.713552998130112

>  <compound_id>  (445) 
11942

>  <target_id>  (445) 
1

>  <reference_id>  (445) 
80

>  <inspiration_ids>  (445) 
[80, 59]

>  <energy_score>  (445) 
60.58071232428546

>  <distance_score>  (445) 
9.069291415613781

>  <path>  (445) 
/opt/xchem-fragalysis-2/maxwin/BulkDock/SCRATCH/511022/C11942-P80/C11942-P80.minimised.mol

>  <scratch_subdir>  (445) 
/opt/xchem-fragalysis-2/maxwin/BulkDock/SCRATCH/511022/C11942-P80

>  <fragmenstein_runtime>  (445) 
26.896830558776855

>  <fragmenstein_outcome>  (445) 
too moved

>  <fragmenstein_mode>  (445) 
expansion

>  <fragmenstein_error>  (445) 


$$$$
C11942-P59
     RDKit          3D

 38 39  0  0  0  0  0  0  0  0999 V2000
   -3.4867   -2.0105   26.7739 C   0  0  0  0  0  0  0  0  0  0  0  0
   -3.7321   -1.5334   25.3482 C   0  0  0  0  0  0  0  0  0  0  0  0
   -3.1481    0.2139   26.0481 C   0  0  0  0  0  0  0  0  0  0  0  0
   -1.8736    0.1853   26.7692 N   0  0  0  0  0  0  0  0  0  0  0  0
   -1.0534    1.2390   27.2547 C   0  0  0  0  0  0  0  0  0  0  0  0
   -1.1486    2.4206   27.1322 O   0  0  0  0  0  0  0  0  0  0  0  0
    0.0256    0.7177   28.1277 C   0  0  0  0  0  0  0  0  0  0  0  0
    1.3485    1.0206   27.8472 C   0  0  0  0  0  0  0  0  0  0  0  0
    2.3077    0.4780   28.6782 C   0  0  0  0  0  0  0  0  0  0  0  0
    2.0262   -0.3098   29.7419 N   0  0  0  0  0  0  0  0  0  0  0  0
    0.7266   -0.5458   30.0117 C   0  0  0  0  0  0  0  0  0  0  0  0
   -0.3078   -0.0599   29.2407 C   0  0  0  0  0  0  0  0  0  0  0  0
   -2.5379   -1.6759   24.6631 N   0  0  0  0  0  0  0  0  0  0  0  0
   -2.1208   -1.9547   22.8205 C   0  0  0  0  0  0  0  0  0  0  0  0
   -3.0590   -2.1419   22.0519 O   0  0  0  0  0  0  0  0  0  0  0  0
   -0.2548   -1.8217   21.6978 C   0  0  0  0  0  0  0  0  0  0  0  0
    0.4822   -0.9555   19.7693 C   0  0  0  0  0  0  0  0  0  0  0  0
    1.6443   -0.7080   19.1254 N   0  0  0  0  0  0  0  0  0  0  0  0
    1.7769   -0.5659   17.6998 C   0  0  0  0  0  0  0  0  0  0  0  0
    0.6164   -0.8004   17.1007 C   0  0  0  0  0  0  0  0  0  0  0  0
   -0.0828   -1.2644   18.1478 N   0  0  0  0  0  0  0  0  0  0  0  0
   -3.4330   -1.3275   27.6310 H   0  0  0  0  0  0  0  0  0  0  0  0
   -2.4555   -2.3583   26.8403 H   0  0  0  0  0  0  0  0  0  0  0  0
   -4.3591   -2.5963   27.0551 H   0  0  0  0  0  0  0  0  0  0  0  0
   -4.7260   -1.5933   24.8964 H   0  0  0  0  0  0  0  0  0  0  0  0
   -2.9809    1.0121   25.3080 H   0  0  0  0  0  0  0  0  0  0  0  0
   -3.8250    0.7560   26.7145 H   0  0  0  0  0  0  0  0  0  0  0  0
   -1.5328   -0.6934   27.1377 H   0  0  0  0  0  0  0  0  0  0  0  0
    1.6223    1.6549   27.0121 H   0  0  0  0  0  0  0  0  0  0  0  0
    3.3647    0.6682   28.5098 H   0  0  0  0  0  0  0  0  0  0  0  0
    0.5397   -1.1547   30.8911 H   0  0  0  0  0  0  0  0  0  0  0  0
   -1.3389   -0.2669   29.5017 H   0  0  0  0  0  0  0  0  0  0  0  0
   -1.7308   -1.4576   25.1308 H   0  0  0  0  0  0  0  0  0  0  0  0
    0.1654   -2.8415   21.7337 H   0  0  0  0  0  0  0  0  0  0  0  0
   -1.1189   -1.4498   21.3875 H   0  0  0  0  0  0  0  0  0  0  0  0
    2.7274   -0.3465   17.2346 H   0  0  0  0  0  0  0  0  0  0  0  0
    0.2934   -0.8583   16.0735 H   0  0  0  0  0  0  0  0  0  0  0  0
   -0.8751   -1.8741   18.0880 H   0  0  0  0  0  0  0  0  0  0  0  0
  1  2  1  0
  2  3  1  0
  3  4  1  0
  4  5  1  0
  5  6  2  0
  5  7  1  0
  7  8  2  0
  8  9  1  0
  9 10  2  0
 10 11  1  0
 11 12  2  0
  2 13  1  0
 13 14  1  0
 14 15  2  0
 14 16  1  0
 16 17  1  0
 17 18  2  0
 18 19  1  0
 19 20  2  0
 20 21  1  0
 12  7  1  0
 21 17  1  0
  1 22  1  0
  1 23  1  0
  1 24  1  0
  2 25  1  0
  3 26  1  0
  3 27  1  0
  4 28  1  0
  8 29  1  0
  9 30  1  0
 11 31  1  0
 12 32  1  0
 13 33  1  0
 16 34  1  0
 16 35  1  0
 19 36  1  0
 20 37  1  0
 21 38  1  0
M  END
>  <Energy>  (446) 
660.80770598447009

>  <compound_id>  (446) 
11942

>  <target_id>  (446) 
1

>  <reference_id>  (446) 
59

>  <inspiration_ids>  (446) 
[80, 59]

>  <energy_score>  (446) 
631.3465548476022

>  <distance_score>  (446) 
8.913454463933249

>  <path>  (446) 
/opt/xchem-fragalysis-2/maxwin/BulkDock/SCRATCH/511022/C11942-P59/C11942-P59.minimised.mol

>  <scratch_subdir>  (446) 
/opt/xchem-fragalysis-2/maxwin/BulkDock/SCRATCH/511022/C11942-P59

>  <fragmenstein_runtime>  (446) 
13.811202049255371

>  <fragmenstein_outcome>  (446) 
too moved

>  <fragmenstein_mode>  (446) 
expansion

>  <fragmenstein_error>  (446) 


$$$$
C8989-P80
     RDKit          3D

 35 36  0  0  0  0  0  0  0  0999 V2000
   -0.4637   -0.9877   28.6981 C   0  0  0  0  0  0  0  0  0  0  0  0
    0.8185   -1.9281   28.5919 C   0  0  0  0  0  0  0  0  0  0  0  0
    1.1494   -2.6674   29.9319 C   0  0  0  0  0  0  0  0  0  0  0  0
    0.3319   -2.0628   30.9265 N   0  0  0  0  0  0  0  0  0  0  0  0
   -1.0204   -2.4884   31.4931 C   0  0  0  0  0  0  0  0  0  0  0  0
   -1.6538   -3.4440   31.2970 O   0  0  0  0  0  0  0  0  0  0  0  0
   -1.4619   -1.3658   32.3080 C   0  0  0  0  0  0  0  0  0  0  0  0
   -2.7772   -1.1621   32.6561 C   0  0  0  0  0  0  0  0  0  0  0  0
   -3.0014    0.4763   33.0736 S   0  0  0  0  0  0  0  0  0  0  0  0
   -1.3350    0.7782   32.8504 C   0  0  0  0  0  0  0  0  0  0  0  0
   -0.6294   -0.2407   32.4348 N   0  0  0  0  0  0  0  0  0  0  0  0
    1.9967   -1.2435   28.0167 N   0  0  0  0  0  0  0  0  0  0  0  0
    3.5164   -1.6447   28.0304 C   0  0  0  0  0  0  0  0  0  0  0  0
    4.0621   -2.5350   28.5661 O   0  0  0  0  0  0  0  0  0  0  0  0
    4.3023   -0.7013   27.0737 C   0  0  0  0  0  0  0  0  0  0  0  0
    4.4592   -1.3559   25.7344 C   0  0  0  0  0  0  0  0  0  0  0  0
    5.4461   -1.4100   24.8787 N   0  0  0  0  0  0  0  0  0  0  0  0
    4.8929   -1.8255   23.7343 C   0  0  0  0  0  0  0  0  0  0  0  0
    3.7159   -2.4213   23.9899 C   0  0  0  0  0  0  0  0  0  0  0  0
    3.4949   -2.1791   25.2776 N   0  0  0  0  0  0  0  0  0  0  0  0
   -0.2951   -0.1501   29.3818 H   0  0  0  0  0  0  0  0  0  0  0  0
   -0.6572   -0.5472   27.7137 H   0  0  0  0  0  0  0  0  0  0  0  0
   -1.3555   -1.5535   28.9799 H   0  0  0  0  0  0  0  0  0  0  0  0
    0.5894   -2.7058   27.8555 H   0  0  0  0  0  0  0  0  0  0  0  0
    2.1898   -2.5727   30.2445 H   0  0  0  0  0  0  0  0  0  0  0  0
    0.8763   -3.7242   29.8552 H   0  0  0  0  0  0  0  0  0  0  0  0
    0.5562   -1.1215   31.2525 H   0  0  0  0  0  0  0  0  0  0  0  0
   -3.6043   -1.8555   32.5960 H   0  0  0  0  0  0  0  0  0  0  0  0
   -0.8956    1.7496   33.0381 H   0  0  0  0  0  0  0  0  0  0  0  0
    1.8570   -0.4641   27.3835 H   0  0  0  0  0  0  0  0  0  0  0  0
    5.2829   -0.5049   27.5200 H   0  0  0  0  0  0  0  0  0  0  0  0
    3.7891    0.2593   26.9691 H   0  0  0  0  0  0  0  0  0  0  0  0
    5.3032   -1.8082   22.7566 H   0  0  0  0  0  0  0  0  0  0  0  0
    2.9783   -2.9023   23.3741 H   0  0  0  0  0  0  0  0  0  0  0  0
    2.6168   -2.3951   25.7289 H   0  0  0  0  0  0  0  0  0  0  0  0
  1  2  1  0
  2  3  1  0
  3  4  1  0
  4  5  1  0
  5  6  2  0
  5  7  1  0
  7  8  2  0
  8  9  1  0
  9 10  1  0
 10 11  2  0
  2 12  1  0
 12 13  1  0
 13 14  2  0
 13 15  1  0
 15 16  1  0
 16 17  2  0
 17 18  1  0
 18 19  2  0
 19 20  1  0
 11  7  1  0
 20 16  1  0
  1 21  1  0
  1 22  1  0
  1 23  1  0
  2 24  1  0
  3 25  1  0
  3 26  1  0
  4 27  1  0
  8 28  1  0
 10 29  1  0
 12 30  1  0
 15 31  1  0
 15 32  1  0
 18 33  1  0
 19 34  1  0
 20 35  1  0
M  END
>  <Energy>  (447) 
77.358005167363302

>  <compound_id>  (447) 
8989

>  <target_id>  (447) 
1

>  <reference_id>  (447) 
80

>  <inspiration_ids>  (447) 
[80, 59]

>  <energy_score>  (447) 
-32.12946004412129

>  <distance_score>  (447) 
8.597735958606325

>  <path>  (447) 
/opt/xchem-fragalysis-2/maxwin/BulkDock/SCRATCH/511022/C8989-P80/C8989-P80.minimised.mol

>  <scratch_subdir>  (447) 
/opt/xchem-fragalysis-2/maxwin/BulkDock/SCRATCH/511022/C8989-P80

>  <fragmenstein_runtime>  (447) 
9.320519924163818

>  <fragmenstein_outcome>  (447) 
too moved

>  <fragmenstein_mode>  (447) 
expansion

>  <fragmenstein_error>  (447) 


$$$$
C8989-P59
     RDKit          3D

 35 36  0  0  0  0  0  0  0  0999 V2000
    0.9838    4.4411   23.2364 C   0  0  0  0  0  0  0  0  0  0  0  0
    2.5178    4.3059   23.1139 C   0  0  0  0  0  0  0  0  0  0  0  0
    3.2085    4.6321   24.4587 C   0  0  0  0  0  0  0  0  0  0  0  0
    2.6629    3.8383   25.5509 N   0  0  0  0  0  0  0  0  0  0  0  0
    1.6477    4.1372   26.5107 C   0  0  0  0  0  0  0  0  0  0  0  0
    1.0395    5.1448   26.7143 O   0  0  0  0  0  0  0  0  0  0  0  0
    1.3219    2.9199   27.3001 C   0  0  0  0  0  0  0  0  0  0  0  0
    0.3013    2.8459   28.2365 C   0  0  0  0  0  0  0  0  0  0  0  0
    0.1883    1.2612   28.8812 S   0  0  0  0  0  0  0  0  0  0  0  0
    1.4994    0.7856   27.8896 C   0  0  0  0  0  0  0  0  0  0  0  0
    2.0147    1.7154   27.1138 N   0  0  0  0  0  0  0  0  0  0  0  0
    3.0249    5.0340   21.9343 N   0  0  0  0  0  0  0  0  0  0  0  0
    4.3494    5.5630   21.6342 C   0  0  0  0  0  0  0  0  0  0  0  0
    5.3433    5.6109   22.3062 O   0  0  0  0  0  0  0  0  0  0  0  0
    4.3958    6.1518   20.1888 C   0  0  0  0  0  0  0  0  0  0  0  0
    5.5689    5.7233   19.3178 C   0  0  0  0  0  0  0  0  0  0  0  0
    5.5741    5.6789   17.9903 N   0  0  0  0  0  0  0  0  0  0  0  0
    6.8100    5.2058   17.6136 C   0  0  0  0  0  0  0  0  0  0  0  0
    7.5799    4.9516   18.7173 C   0  0  0  0  0  0  0  0  0  0  0  0
    6.7891    5.2954   19.7875 N   0  0  0  0  0  0  0  0  0  0  0  0
    0.5067    4.2375   22.2710 H   0  0  0  0  0  0  0  0  0  0  0  0
    0.5650    3.7347   23.9583 H   0  0  0  0  0  0  0  0  0  0  0  0
    0.7061    5.4583   23.5322 H   0  0  0  0  0  0  0  0  0  0  0  0
    2.7229    3.2514   22.8929 H   0  0  0  0  0  0  0  0  0  0  0  0
    3.0758    5.6911   24.7048 H   0  0  0  0  0  0  0  0  0  0  0  0
    4.2797    4.4164   24.4093 H   0  0  0  0  0  0  0  0  0  0  0  0
    3.0151    2.8967   25.7232 H   0  0  0  0  0  0  0  0  0  0  0  0
   -0.3730    3.6349   28.5469 H   0  0  0  0  0  0  0  0  0  0  0  0
    1.8751   -0.2293   27.9010 H   0  0  0  0  0  0  0  0  0  0  0  0
    2.4515    5.0847   21.1007 H   0  0  0  0  0  0  0  0  0  0  0  0
    3.4783    5.9061   19.6433 H   0  0  0  0  0  0  0  0  0  0  0  0
    4.4227    7.2430   20.2934 H   0  0  0  0  0  0  0  0  0  0  0  0
    7.0684    5.0737   16.5717 H   0  0  0  0  0  0  0  0  0  0  0  0
    8.5804    4.5655   18.8464 H   0  0  0  0  0  0  0  0  0  0  0  0
    7.0020    5.1200   20.7673 H   0  0  0  0  0  0  0  0  0  0  0  0
  1  2  1  0
  2  3  1  0
  3  4  1  0
  4  5  1  0
  5  6  2  0
  5  7  1  0
  7  8  2  0
  8  9  1  0
  9 10  1  0
 10 11  2  0
  2 12  1  0
 12 13  1  0
 13 14  2  0
 13 15  1  0
 15 16  1  0
 16 17  2  0
 17 18  1  0
 18 19  2  0
 19 20  1  0
 11  7  1  0
 20 16  1  0
  1 21  1  0
  1 22  1  0
  1 23  1  0
  2 24  1  0
  3 25  1  0
  3 26  1  0
  4 27  1  0
  8 28  1  0
 10 29  1  0
 12 30  1  0
 15 31  1  0
 15 32  1  0
 18 33  1  0
 19 34  1  0
 20 35  1  0
M  END
>  <Energy>  (448) 
30.603791252909534

>  <compound_id>  (448) 
8989

>  <target_id>  (448) 
1

>  <reference_id>  (448) 
59

>  <inspiration_ids>  (448) 
[80, 59]

>  <energy_score>  (448) 
-81.29251634085529

>  <distance_score>  (448) 
10.736299072383298

>  <path>  (448) 
/opt/xchem-fragalysis-2/maxwin/BulkDock/SCRATCH/511022/C8989-P59/C8989-P59.minimised.mol

>  <scratch_subdir>  (448) 
/opt/xchem-fragalysis-2/maxwin/BulkDock/SCRATCH/511022/C8989-P59

>  <fragmenstein_runtime>  (448) 
12.732539415359497

>  <fragmenstein_outcome>  (448) 
too moved

>  <fragmenstein_mode>  (448) 
expansion

>  <fragmenstein_error>  (448) 


$$$$
C9624-P80
     RDKit          3D

 38 39  0  0  0  0  0  0  0  0999 V2000
    0.3238   -2.4910   31.2201 C   0  0  0  0  0  0  0  0  0  0  0  0
    0.7038   -3.3445   29.9477 C   0  0  0  0  0  0  0  0  0  0  0  0
   -0.3833   -3.1510   28.8791 C   0  0  0  0  0  0  0  0  0  0  0  0
   -0.5157   -1.7492   28.6987 N   0  0  0  0  0  0  0  0  0  0  0  0
   -1.6993   -0.9219   28.2394 C   0  0  0  0  0  0  0  0  0  0  0  0
   -2.7416   -1.2494   27.8575 O   0  0  0  0  0  0  0  0  0  0  0  0
   -1.3099    0.4880   28.4690 C   0  0  0  0  0  0  0  0  0  0  0  0
   -1.7400    1.4504   27.5965 C   0  0  0  0  0  0  0  0  0  0  0  0
   -1.1166    2.6785   27.6959 C   0  0  0  0  0  0  0  0  0  0  0  0
   -0.1203    2.8842   28.6494 C   0  0  0  0  0  0  0  0  0  0  0  0
    0.1818    1.8721   29.5376 C   0  0  0  0  0  0  0  0  0  0  0  0
   -0.4105    0.6764   29.4863 N   0  0  0  0  0  0  0  0  0  0  0  0
    2.0520   -3.1631   29.3215 N   0  0  0  0  0  0  0  0  0  0  0  0
    2.6180   -1.9867   28.4237 C   0  0  0  0  0  0  0  0  0  0  0  0
    2.1295   -0.9611   28.1165 O   0  0  0  0  0  0  0  0  0  0  0  0
    4.0380   -2.4003   27.8993 C   0  0  0  0  0  0  0  0  0  0  0  0
    4.2297   -2.2120   26.3962 C   0  0  0  0  0  0  0  0  0  0  0  0
    3.7395   -2.9961   25.4567 N   0  0  0  0  0  0  0  0  0  0  0  0
    3.9655   -2.3433   24.3081 C   0  0  0  0  0  0  0  0  0  0  0  0
    4.8567   -1.3525   24.5050 C   0  0  0  0  0  0  0  0  0  0  0  0
    5.0874   -1.3038   25.8346 N   0  0  0  0  0  0  0  0  0  0  0  0
   -0.7184   -2.6555   31.5105 H   0  0  0  0  0  0  0  0  0  0  0  0
    0.5041   -1.4242   31.0661 H   0  0  0  0  0  0  0  0  0  0  0  0
    0.9654   -2.7983   32.0531 H   0  0  0  0  0  0  0  0  0  0  0  0
    0.6896   -4.3991   30.2489 H   0  0  0  0  0  0  0  0  0  0  0  0
   -1.3432   -3.5382   29.2184 H   0  0  0  0  0  0  0  0  0  0  0  0
   -0.1165   -3.6209   27.9323 H   0  0  0  0  0  0  0  0  0  0  0  0
    0.2794   -1.1301   28.8916 H   0  0  0  0  0  0  0  0  0  0  0  0
   -2.4795    1.2483   26.8347 H   0  0  0  0  0  0  0  0  0  0  0  0
   -1.3923    3.4877   27.0230 H   0  0  0  0  0  0  0  0  0  0  0  0
    0.3785    3.8461   28.7207 H   0  0  0  0  0  0  0  0  0  0  0  0
    0.9291    2.0029   30.3130 H   0  0  0  0  0  0  0  0  0  0  0  0
    2.7683   -3.8666   29.4501 H   0  0  0  0  0  0  0  0  0  0  0  0
    4.2377   -3.4514   28.1304 H   0  0  0  0  0  0  0  0  0  0  0  0
    4.7701   -1.7987   28.4502 H   0  0  0  0  0  0  0  0  0  0  0  0
    3.3715   -2.5961   23.4552 H   0  0  0  0  0  0  0  0  0  0  0  0
    5.0719   -0.5319   23.8827 H   0  0  0  0  0  0  0  0  0  0  0  0
    5.5631   -0.5833   26.3527 H   0  0  0  0  0  0  0  0  0  0  0  0
  1  2  1  0
  2  3  1  0
  3  4  1  0
  4  5  1  0
  5  6  2  0
  5  7  1  0
  7  8  2  0
  8  9  1  0
  9 10  2  0
 10 11  1  0
 11 12  2  0
  2 13  1  0
 13 14  1  0
 14 15  2  0
 14 16  1  0
 16 17  1  0
 17 18  2  0
 18 19  1  0
 19 20  2  0
 20 21  1  0
 12  7  1  0
 21 17  1  0
  1 22  1  0
  1 23  1  0
  1 24  1  0
  2 25  1  0
  3 26  1  0
  3 27  1  0
  4 28  1  0
  8 29  1  0
  9 30  1  0
 10 31  1  0
 11 32  1  0
 13 33  1  0
 16 34  1  0
 16 35  1  0
 19 36  1  0
 20 37  1  0
 21 38  1  0
M  END
>  <Energy>  (449) 
103.96287869120671

>  <compound_id>  (449) 
9624

>  <target_id>  (449) 
1

>  <reference_id>  (449) 
80

>  <inspiration_ids>  (449) 
[80, 59]

>  <energy_score>  (449) 
28.53525862522787

>  <distance_score>  (449) 
8.47181416246404

>  <path>  (449) 
/opt/xchem-fragalysis-2/maxwin/BulkDock/SCRATCH/511022/C9624-P80/C9624-P80.minimised.mol

>  <scratch_subdir>  (449) 
/opt/xchem-fragalysis-2/maxwin/BulkDock/SCRATCH/511022/C9624-P80

>  <fragmenstein_runtime>  (449) 
8.340093851089478

>  <fragmenstein_outcome>  (449) 
too moved

>  <fragmenstein_mode>  (449) 
expansion

>  <fragmenstein_error>  (449) 


$$$$
C9624-P59
     RDKit          3D

 38 39  0  0  0  0  0  0  0  0999 V2000
    3.8159   -5.5025   27.3195 C   0  0  0  0  0  0  0  0  0  0  0  0
    5.0501   -4.5917   27.3912 C   0  0  0  0  0  0  0  0  0  0  0  0
    4.7171   -3.1666   26.8984 C   0  0  0  0  0  0  0  0  0  0  0  0
    3.5919   -2.5631   27.5942 N   0  0  0  0  0  0  0  0  0  0  0  0
    3.3401   -2.3809   28.9901 C   0  0  0  0  0  0  0  0  0  0  0  0
    3.9535   -2.7479   29.9491 O   0  0  0  0  0  0  0  0  0  0  0  0
    2.0292   -1.6489   29.2113 C   0  0  0  0  0  0  0  0  0  0  0  0
    1.5310   -1.4433   30.4918 C   0  0  0  0  0  0  0  0  0  0  0  0
    0.2967   -0.8103   30.6279 C   0  0  0  0  0  0  0  0  0  0  0  0
   -0.3980   -0.4123   29.4901 C   0  0  0  0  0  0  0  0  0  0  0  0
    0.1727   -0.6585   28.2534 C   0  0  0  0  0  0  0  0  0  0  0  0
    1.3702   -1.2619   28.0849 N   0  0  0  0  0  0  0  0  0  0  0  0
    6.2596   -5.1333   26.7494 N   0  0  0  0  0  0  0  0  0  0  0  0
    6.4225   -5.9607   25.5533 C   0  0  0  0  0  0  0  0  0  0  0  0
    5.6060   -6.4703   24.8414 O   0  0  0  0  0  0  0  0  0  0  0  0
    7.9451   -6.2283   25.3337 C   0  0  0  0  0  0  0  0  0  0  0  0
    8.4842   -6.2907   23.9180 C   0  0  0  0  0  0  0  0  0  0  0  0
    7.8655   -6.4305   22.7611 N   0  0  0  0  0  0  0  0  0  0  0  0
    8.8340   -6.4589   21.7937 C   0  0  0  0  0  0  0  0  0  0  0  0
   10.0771   -6.2900   22.3447 C   0  0  0  0  0  0  0  0  0  0  0  0
    9.8492   -6.2000   23.6902 N   0  0  0  0  0  0  0  0  0  0  0  0
    4.0729   -6.5182   27.6390 H   0  0  0  0  0  0  0  0  0  0  0  0
    3.0077   -5.1462   27.9650 H   0  0  0  0  0  0  0  0  0  0  0  0
    3.4328   -5.5645   26.2955 H   0  0  0  0  0  0  0  0  0  0  0  0
    5.3290   -4.5234   28.4501 H   0  0  0  0  0  0  0  0  0  0  0  0
    4.4825   -3.1730   25.8288 H   0  0  0  0  0  0  0  0  0  0  0  0
    5.5804   -2.5089   27.0489 H   0  0  0  0  0  0  0  0  0  0  0  0
    2.8981   -2.0379   27.0607 H   0  0  0  0  0  0  0  0  0  0  0  0
    2.0890   -1.7727   31.3624 H   0  0  0  0  0  0  0  0  0  0  0  0
   -0.1190   -0.6339   31.6160 H   0  0  0  0  0  0  0  0  0  0  0  0
   -1.3635    0.0766   29.5612 H   0  0  0  0  0  0  0  0  0  0  0  0
   -0.3390   -0.3746   27.3372 H   0  0  0  0  0  0  0  0  0  0  0  0
    7.1671   -4.8042   27.0506 H   0  0  0  0  0  0  0  0  0  0  0  0
    8.5369   -5.4751   25.8675 H   0  0  0  0  0  0  0  0  0  0  0  0
    8.1533   -7.1916   25.8170 H   0  0  0  0  0  0  0  0  0  0  0  0
    8.5705   -6.5897   20.7587 H   0  0  0  0  0  0  0  0  0  0  0  0
   11.0689   -6.2307   21.9191 H   0  0  0  0  0  0  0  0  0  0  0  0
   10.5529   -6.0822   24.4060 H   0  0  0  0  0  0  0  0  0  0  0  0
  1  2  1  0
  2  3  1  0
  3  4  1  0
  4  5  1  0
  5  6  2  0
  5  7  1  0
  7  8  2  0
  8  9  1  0
  9 10  2  0
 10 11  1  0
 11 12  2  0
  2 13  1  0
 13 14  1  0
 14 15  2  0
 14 16  1  0
 16 17  1  0
 17 18  2  0
 18 19  1  0
 19 20  2  0
 20 21  1  0
 12  7  1  0
 21 17  1  0
  1 22  1  0
  1 23  1  0
  1 24  1  0
  2 25  1  0
  3 26  1  0
  3 27  1  0
  4 28  1  0
  8 29  1  0
  9 30  1  0
 10 31  1  0
 11 32  1  0
 13 33  1  0
 16 34  1  0
 16 35  1  0
 19 36  1  0
 20 37  1  0
 21 38  1  0
M  END
>  <Energy>  (450) 
74.234136487357148

>  <compound_id>  (450) 
9624

>  <target_id>  (450) 
1

>  <reference_id>  (450) 
59

>  <inspiration_ids>  (450) 
[80, 59]

>  <energy_score>  (450) 
-2.7385752632944786

>  <distance_score>  (450) 
9.257348488502949

>  <path>  (450) 
/opt/xchem-fragalysis-2/maxwin/BulkDock/SCRATCH/511022/C9624-P59/C9624-P59.minimised.mol

>  <scratch_subdir>  (450) 
/opt/xchem-fragalysis-2/maxwin/BulkDock/SCRATCH/511022/C9624-P59

>  <fragmenstein_runtime>  (450) 
13.068039894104004

>  <fragmenstein_outcome>  (450) 
too moved

>  <fragmenstein_mode>  (450) 
expansion

>  <fragmenstein_error>  (450) 


$$$$
C11894-P80
     RDKit          3D

 38 39  0  0  0  0  0  0  0  0999 V2000
    5.5982   -1.8104   21.6689 C   0  0  0  0  0  0  0  0  0  0  0  0
    6.3402   -0.2493   20.8719 C   0  0  0  0  0  0  0  0  0  0  0  0
    4.7967    0.5451   21.9279 C   0  0  0  0  0  0  0  0  0  0  0  0
    3.6161    1.7805   22.6503 N   0  0  0  0  0  0  0  0  0  0  0  0
    2.6054    2.6594   22.0119 C   0  0  0  0  0  0  0  0  0  0  0  0
    2.3527    2.8504   20.8513 O   0  0  0  0  0  0  0  0  0  0  0  0
    1.7691    3.3771   23.0754 C   0  0  0  0  0  0  0  0  0  0  0  0
    2.1978    3.6186   24.3905 C   0  0  0  0  0  0  0  0  0  0  0  0
    1.2799    3.9794   25.3805 C   0  0  0  0  0  0  0  0  0  0  0  0
   -0.0500    4.1090   25.0258 C   0  0  0  0  0  0  0  0  0  0  0  0
   -0.5024    3.9261   23.7680 N   0  0  0  0  0  0  0  0  0  0  0  0
    0.4175    3.5872   22.8206 C   0  0  0  0  0  0  0  0  0  0  0  0
    7.2987    0.7684   19.6037 N   0  0  0  0  0  0  0  0  0  0  0  0
    7.5447    0.5645   17.9724 C   0  0  0  0  0  0  0  0  0  0  0  0
    7.2275   -0.3428   17.2326 O   0  0  0  0  0  0  0  0  0  0  0  0
    8.1928    1.7772   17.2525 C   0  0  0  0  0  0  0  0  0  0  0  0
    9.3513    1.3396   16.4015 C   0  0  0  0  0  0  0  0  0  0  0  0
   10.5117    1.9553   16.2987 N   0  0  0  0  0  0  0  0  0  0  0  0
   11.2934    1.1700   15.4888 C   0  0  0  0  0  0  0  0  0  0  0  0
   10.5949    0.0684   15.0697 C   0  0  0  0  0  0  0  0  0  0  0  0
    9.3421    0.2192   15.5936 N   0  0  0  0  0  0  0  0  0  0  0  0
    4.8049   -1.3720   22.2278 H   0  0  0  0  0  0  0  0  0  0  0  0
    5.5746   -2.7098   21.0401 H   0  0  0  0  0  0  0  0  0  0  0  0
    5.6338   -2.1532   22.7310 H   0  0  0  0  0  0  0  0  0  0  0  0
    7.2268   -0.8777   20.8907 H   0  0  0  0  0  0  0  0  0  0  0  0
    3.9557    0.1856   21.5093 H   0  0  0  0  0  0  0  0  0  0  0  0
    4.8911    0.1630   22.9508 H   0  0  0  0  0  0  0  0  0  0  0  0
    3.4936    1.8032   23.6433 H   0  0  0  0  0  0  0  0  0  0  0  0
    3.2424    3.5296   24.6666 H   0  0  0  0  0  0  0  0  0  0  0  0
    1.5983    4.1616   26.4013 H   0  0  0  0  0  0  0  0  0  0  0  0
   -0.8040    4.3892   25.7569 H   0  0  0  0  0  0  0  0  0  0  0  0
    0.0095    3.4088   21.8273 H   0  0  0  0  0  0  0  0  0  0  0  0
    7.6216    1.6870   19.8891 H   0  0  0  0  0  0  0  0  0  0  0  0
    8.4312    2.6057   17.9007 H   0  0  0  0  0  0  0  0  0  0  0  0
    7.4300    2.1986   16.5898 H   0  0  0  0  0  0  0  0  0  0  0  0
   12.3154    1.4412   15.2574 H   0  0  0  0  0  0  0  0  0  0  0  0
   10.8549   -0.7624   14.4289 H   0  0  0  0  0  0  0  0  0  0  0  0
    8.5388   -0.3794   15.4206 H   0  0  0  0  0  0  0  0  0  0  0  0
  1  2  1  0
  2  3  1  0
  3  4  1  0
  4  5  1  0
  5  6  2  0
  5  7  1  0
  7  8  2  0
  8  9  1  0
  9 10  2  0
 10 11  1  0
 11 12  2  0
  2 13  1  0
 13 14  1  0
 14 15  2  0
 14 16  1  0
 16 17  1  0
 17 18  2  0
 18 19  1  0
 19 20  2  0
 20 21  1  0
 12  7  1  0
 21 17  1  0
  1 22  1  0
  1 23  1  0
  1 24  1  0
  2 25  1  0
  3 26  1  0
  3 27  1  0
  4 28  1  0
  8 29  1  0
  9 30  1  0
 10 31  1  0
 12 32  1  0
 13 33  1  0
 16 34  1  0
 16 35  1  0
 19 36  1  0
 20 37  1  0
 21 38  1  0
M  END
>  <Energy>  (451) 
462.046951079211

>  <compound_id>  (451) 
11894

>  <target_id>  (451) 
1

>  <reference_id>  (451) 
80

>  <inspiration_ids>  (451) 
[80, 59]

>  <energy_score>  (451) 
402.7009823076007

>  <distance_score>  (451) 
11.649978333076994

>  <path>  (451) 
/opt/xchem-fragalysis-2/maxwin/BulkDock/SCRATCH/511022/C11894-P80/C11894-P80.minimised.mol

>  <scratch_subdir>  (451) 
/opt/xchem-fragalysis-2/maxwin/BulkDock/SCRATCH/511022/C11894-P80

>  <fragmenstein_runtime>  (451) 
12.343380689620972

>  <fragmenstein_outcome>  (451) 
too moved

>  <fragmenstein_mode>  (451) 
expansion

>  <fragmenstein_error>  (451) 


$$$$
C11894-P59
     RDKit          3D

 38 39  0  0  0  0  0  0  0  0999 V2000
    4.6675   -0.4535   26.2485 C   0  0  0  0  0  0  0  0  0  0  0  0
    4.7844    0.8082   25.3833 C   0  0  0  0  0  0  0  0  0  0  0  0
    3.6695    1.8469   25.7001 C   0  0  0  0  0  0  0  0  0  0  0  0
    2.6506    1.4155   26.6482 N   0  0  0  0  0  0  0  0  0  0  0  0
    2.2618    1.9506   27.9165 C   0  0  0  0  0  0  0  0  0  0  0  0
    2.6191    2.9360   28.4905 O   0  0  0  0  0  0  0  0  0  0  0  0
    1.1888    1.1495   28.5957 C   0  0  0  0  0  0  0  0  0  0  0  0
    0.1786    0.4680   27.9087 C   0  0  0  0  0  0  0  0  0  0  0  0
   -0.7778   -0.2621   28.6121 C   0  0  0  0  0  0  0  0  0  0  0  0
   -0.7100   -0.2657   29.9932 C   0  0  0  0  0  0  0  0  0  0  0  0
    0.2230    0.4080   30.7005 N   0  0  0  0  0  0  0  0  0  0  0  0
    1.1465    1.1065   29.9850 C   0  0  0  0  0  0  0  0  0  0  0  0
    4.9354    0.5640   23.9273 N   0  0  0  0  0  0  0  0  0  0  0  0
    4.9230   -0.7126   23.1387 C   0  0  0  0  0  0  0  0  0  0  0  0
    4.7070   -1.8448   23.4933 O   0  0  0  0  0  0  0  0  0  0  0  0
    5.3912   -0.6264   21.2283 C   0  0  0  0  0  0  0  0  0  0  0  0
    6.6593    0.2878   19.9051 C   0  0  0  0  0  0  0  0  0  0  0  0
    7.4815    1.4609   19.9377 N   0  0  0  0  0  0  0  0  0  0  0  0
    8.1651    1.6522   18.7702 C   0  0  0  0  0  0  0  0  0  0  0  0
    7.8832    0.6214   17.9441 C   0  0  0  0  0  0  0  0  0  0  0  0
    7.0322   -0.1734   18.6691 N   0  0  0  0  0  0  0  0  0  0  0  0
    5.5075   -1.1288   26.0525 H   0  0  0  0  0  0  0  0  0  0  0  0
    3.7516   -1.0053   26.0486 H   0  0  0  0  0  0  0  0  0  0  0  0
    4.6970   -0.2037   27.3144 H   0  0  0  0  0  0  0  0  0  0  0  0
    5.7321    1.2872   25.6580 H   0  0  0  0  0  0  0  0  0  0  0  0
    3.1433    2.1400   24.7855 H   0  0  0  0  0  0  0  0  0  0  0  0
    4.1282    2.7550   26.1081 H   0  0  0  0  0  0  0  0  0  0  0  0
    2.2025    0.5182   26.5177 H   0  0  0  0  0  0  0  0  0  0  0  0
    0.0969    0.5188   26.8306 H   0  0  0  0  0  0  0  0  0  0  0  0
   -1.5602   -0.8047   28.0903 H   0  0  0  0  0  0  0  0  0  0  0  0
   -1.4327   -0.8178   30.5866 H   0  0  0  0  0  0  0  0  0  0  0  0
    1.8784    1.6441   30.5837 H   0  0  0  0  0  0  0  0  0  0  0  0
    5.0698    1.3341   23.3029 H   0  0  0  0  0  0  0  0  0  0  0  0
    4.6235    0.1974   21.1896 H   0  0  0  0  0  0  0  0  0  0  0  0
    5.5053   -1.7120   20.9266 H   0  0  0  0  0  0  0  0  0  0  0  0
    8.7890    2.5224   18.6076 H   0  0  0  0  0  0  0  0  0  0  0  0
    8.1402    0.4154   16.9142 H   0  0  0  0  0  0  0  0  0  0  0  0
    6.3855   -0.8623   18.3182 H   0  0  0  0  0  0  0  0  0  0  0  0
  1  2  1  0
  2  3  1  0
  3  4  1  0
  4  5  1  0
  5  6  2  0
  5  7  1  0
  7  8  2  0
  8  9  1  0
  9 10  2  0
 10 11  1  0
 11 12  2  0
  2 13  1  0
 13 14  1  0
 14 15  2  0
 14 16  1  0
 16 17  1  0
 17 18  2  0
 18 19  1  0
 19 20  2  0
 20 21  1  0
 12  7  1  0
 21 17  1  0
  1 22  1  0
  1 23  1  0
  1 24  1  0
  2 25  1  0
  3 26  1  0
  3 27  1  0
  4 28  1  0
  8 29  1  0
  9 30  1  0
 10 31  1  0
 12 32  1  0
 13 33  1  0
 16 34  1  0
 16 35  1  0
 19 36  1  0
 20 37  1  0
 21 38  1  0
M  END
>  <Energy>  (452) 
238.60819996120071

>  <compound_id>  (452) 
11894

>  <target_id>  (452) 
1

>  <reference_id>  (452) 
59

>  <inspiration_ids>  (452) 
[80, 59]

>  <energy_score>  (452) 
179.2622311896023

>  <distance_score>  (452) 
8.801630763476805

>  <path>  (452) 
/opt/xchem-fragalysis-2/maxwin/BulkDock/SCRATCH/511022/C11894-P59/C11894-P59.minimised.mol

>  <scratch_subdir>  (452) 
/opt/xchem-fragalysis-2/maxwin/BulkDock/SCRATCH/511022/C11894-P59

>  <fragmenstein_runtime>  (452) 
13.570708990097046

>  <fragmenstein_outcome>  (452) 
too moved

>  <fragmenstein_mode>  (452) 
expansion

>  <fragmenstein_error>  (452) 


$$$$
C11943-P80
     RDKit          3D

 44 45  0  0  0  0  0  0  0  0999 V2000
    8.5930    2.3793   16.9026 C   0  0  0  0  0  0  0  0  0  0  0  0
    7.5366    2.5052   18.0027 C   0  0  0  0  0  0  0  0  0  0  0  0
    7.3239    1.2342   18.8783 C   0  0  0  0  0  0  0  0  0  0  0  0
    7.5400   -0.0670   18.4913 C   0  0  0  0  0  0  0  0  0  0  0  0
    7.6813   -0.9559   19.6065 N   0  0  0  0  0  0  0  0  0  0  0  0
    6.9453   -0.5867   20.6765 C   0  0  0  0  0  0  0  0  0  0  0  0
    5.5535   -1.5716   21.7686 C   0  0  0  0  0  0  0  0  0  0  0  0
    4.6100   -1.6314   23.4891 C   0  0  0  0  0  0  0  0  0  0  0  0
    3.9177   -2.5993   23.5337 O   0  0  0  0  0  0  0  0  0  0  0  0
    4.8167   -0.6258   24.4802 N   0  0  0  0  0  0  0  0  0  0  0  0
    4.1812   -0.4120   25.8001 C   0  0  0  0  0  0  0  0  0  0  0  0
    3.6328   -1.7078   26.4521 C   0  0  0  0  0  0  0  0  0  0  0  0
    4.9185    0.3684   26.9156 C   0  0  0  0  0  0  0  0  0  0  0  0
    3.9216    0.6934   27.9306 N   0  0  0  0  0  0  0  0  0  0  0  0
    3.0490    1.8124   28.0595 C   0  0  0  0  0  0  0  0  0  0  0  0
    2.9629    2.8137   27.4143 O   0  0  0  0  0  0  0  0  0  0  0  0
    2.0253    1.6185   29.1279 C   0  0  0  0  0  0  0  0  0  0  0  0
    1.2364    0.4626   29.1335 C   0  0  0  0  0  0  0  0  0  0  0  0
    0.2281    0.3675   30.0736 C   0  0  0  0  0  0  0  0  0  0  0  0
   -0.0370    1.3300   30.9814 N   0  0  0  0  0  0  0  0  0  0  0  0
    0.7293    2.4449   30.9337 C   0  0  0  0  0  0  0  0  0  0  0  0
    1.7575    2.6406   30.0300 C   0  0  0  0  0  0  0  0  0  0  0  0
    7.5477    0.8343   20.4848 N   0  0  0  0  0  0  0  0  0  0  0  0
    8.3649    1.5604   16.2173 H   0  0  0  0  0  0  0  0  0  0  0  0
    8.6191    3.3011   16.3109 H   0  0  0  0  0  0  0  0  0  0  0  0
    9.6007    2.2111   17.2794 H   0  0  0  0  0  0  0  0  0  0  0  0
    7.6665    3.4263   18.5644 H   0  0  0  0  0  0  0  0  0  0  0  0
    6.6413    2.7817   17.4585 H   0  0  0  0  0  0  0  0  0  0  0  0
    7.8312   -0.2353   17.4567 H   0  0  0  0  0  0  0  0  0  0  0  0
    5.6748   -2.5798   22.1745 H   0  0  0  0  0  0  0  0  0  0  0  0
    5.5107   -2.4517   21.0474 H   0  0  0  0  0  0  0  0  0  0  0  0
    5.3819    0.0854   24.0948 H   0  0  0  0  0  0  0  0  0  0  0  0
    3.3059    0.1893   25.5394 H   0  0  0  0  0  0  0  0  0  0  0  0
    4.4224   -2.2186   27.0116 H   0  0  0  0  0  0  0  0  0  0  0  0
    3.2513   -2.4215   25.7302 H   0  0  0  0  0  0  0  0  0  0  0  0
    2.8182   -1.4985   27.1488 H   0  0  0  0  0  0  0  0  0  0  0  0
    5.3490    1.3063   26.5666 H   0  0  0  0  0  0  0  0  0  0  0  0
    5.7091   -0.2300   27.3783 H   0  0  0  0  0  0  0  0  0  0  0  0
    3.7652    0.0613   28.7080 H   0  0  0  0  0  0  0  0  0  0  0  0
    1.3670   -0.3230   28.3987 H   0  0  0  0  0  0  0  0  0  0  0  0
   -0.4195   -0.5037   30.1144 H   0  0  0  0  0  0  0  0  0  0  0  0
    0.4778    3.2129   31.6603 H   0  0  0  0  0  0  0  0  0  0  0  0
    2.3177    3.5691   30.0118 H   0  0  0  0  0  0  0  0  0  0  0  0
    7.4849    1.5887   21.1608 H   0  0  0  0  0  0  0  0  0  0  0  0
  1  2  1  0
  2  3  1  0
  3  4  2  0
  4  5  1  0
  5  6  2  0
  6  7  1  0
  7  8  1  0
  8  9  2  0
  8 10  1  0
 10 11  1  0
 11 12  1  0
 11 13  1  0
 13 14  1  0
 14 15  1  0
 15 16  2  0
 15 17  1  0
 17 18  2  0
 18 19  1  0
 19 20  2  0
 20 21  1  0
 21 22  2  0
  6 23  1  0
 23  3  1  0
 22 17  1  0
  1 24  1  0
  1 25  1  0
  1 26  1  0
  2 27  1  0
  2 28  1  0
  4 29  1  0
  7 30  1  0
  7 31  1  0
 10 32  1  0
 11 33  1  0
 12 34  1  0
 12 35  1  0
 12 36  1  0
 13 37  1  0
 13 38  1  0
 14 39  1  0
 18 40  1  0
 19 41  1  0
 21 42  1  0
 22 43  1  0
 23 44  1  0
M  END
>  <Energy>  (453) 
347.10194790562542

>  <compound_id>  (453) 
11943

>  <target_id>  (453) 
1

>  <reference_id>  (453) 
80

>  <inspiration_ids>  (453) 
[80, 59]

>  <energy_score>  (453) 
310.31099992611064

>  <distance_score>  (453) 
8.811334730571383

>  <path>  (453) 
/opt/xchem-fragalysis-2/maxwin/BulkDock/SCRATCH/511022/C11943-P80/C11943-P80.minimised.mol

>  <scratch_subdir>  (453) 
/opt/xchem-fragalysis-2/maxwin/BulkDock/SCRATCH/511022/C11943-P80

>  <fragmenstein_runtime>  (453) 
14.002961158752441

>  <fragmenstein_outcome>  (453) 
too moved

>  <fragmenstein_mode>  (453) 
expansion

>  <fragmenstein_error>  (453) 


$$$$
C11943-P59
     RDKit          3D

 44 45  0  0  0  0  0  0  0  0999 V2000
   10.4142   -3.2815   21.4840 C   0  0  0  0  0  0  0  0  0  0  0  0
    8.1470   -3.4439   21.1384 C   0  0  0  0  0  0  0  0  0  0  0  0
    6.6006   -3.5338   22.5118 C   0  0  0  0  0  0  0  0  0  0  0  0
    5.7012   -2.6938   23.5738 C   0  0  0  0  0  0  0  0  0  0  0  0
    5.3337   -3.3205   24.7972 N   0  0  0  0  0  0  0  0  0  0  0  0
    5.7078   -4.5826   24.7375 C   0  0  0  0  0  0  0  0  0  0  0  0
    5.5014   -5.5791   25.8273 C   0  0  0  0  0  0  0  0  0  0  0  0
    4.1457   -5.3914   26.5523 C   0  0  0  0  0  0  0  0  0  0  0  0
    3.3988   -6.3294   26.5881 O   0  0  0  0  0  0  0  0  0  0  0  0
    4.0440   -4.0861   27.1532 N   0  0  0  0  0  0  0  0  0  0  0  0
    2.9654   -3.4637   27.9085 C   0  0  0  0  0  0  0  0  0  0  0  0
    3.1140   -1.9366   27.9541 C   0  0  0  0  0  0  0  0  0  0  0  0
    2.7700   -4.0313   29.3320 C   0  0  0  0  0  0  0  0  0  0  0  0
    1.6137   -3.4025   29.9490 N   0  0  0  0  0  0  0  0  0  0  0  0
    0.3051   -3.8997   30.2034 C   0  0  0  0  0  0  0  0  0  0  0  0
   -0.1606   -4.9879   30.0491 O   0  0  0  0  0  0  0  0  0  0  0  0
   -0.6118   -2.8184   30.6415 C   0  0  0  0  0  0  0  0  0  0  0  0
   -1.2037   -2.8681   31.8954 C   0  0  0  0  0  0  0  0  0  0  0  0
   -2.0499   -1.8286   32.2347 C   0  0  0  0  0  0  0  0  0  0  0  0
   -2.3348   -0.7857   31.4192 N   0  0  0  0  0  0  0  0  0  0  0  0
   -1.7592   -0.7847   30.1969 C   0  0  0  0  0  0  0  0  0  0  0  0
   -0.8977   -1.7716   29.7623 C   0  0  0  0  0  0  0  0  0  0  0  0
    6.3629   -4.8805   23.5129 N   0  0  0  0  0  0  0  0  0  0  0  0
   10.6648   -3.1150   22.5798 H   0  0  0  0  0  0  0  0  0  0  0  0
   11.3152   -2.9994   20.9386 H   0  0  0  0  0  0  0  0  0  0  0  0
   10.7634   -4.3897   21.5093 H   0  0  0  0  0  0  0  0  0  0  0  0
    8.3106   -4.1056   20.2529 H   0  0  0  0  0  0  0  0  0  0  0  0
    7.6819   -4.4421   21.1419 H   0  0  0  0  0  0  0  0  0  0  0  0
    5.1236   -1.7781   23.3872 H   0  0  0  0  0  0  0  0  0  0  0  0
    5.5338   -6.5955   25.4180 H   0  0  0  0  0  0  0  0  0  0  0  0
    6.3021   -5.4937   26.5702 H   0  0  0  0  0  0  0  0  0  0  0  0
    4.8309   -3.5120   26.8378 H   0  0  0  0  0  0  0  0  0  0  0  0
    2.0546   -3.7004   27.3557 H   0  0  0  0  0  0  0  0  0  0  0  0
    3.9163   -1.6439   28.6404 H   0  0  0  0  0  0  0  0  0  0  0  0
    3.3791   -1.5400   26.9689 H   0  0  0  0  0  0  0  0  0  0  0  0
    2.1903   -1.4412   28.2665 H   0  0  0  0  0  0  0  0  0  0  0  0
    3.6420   -3.8265   29.9612 H   0  0  0  0  0  0  0  0  0  0  0  0
    2.6054   -5.1132   29.2992 H   0  0  0  0  0  0  0  0  0  0  0  0
    1.6270   -2.4034   30.1233 H   0  0  0  0  0  0  0  0  0  0  0  0
   -1.0080   -3.6802   32.5865 H   0  0  0  0  0  0  0  0  0  0  0  0
   -2.5407   -1.8081   33.2052 H   0  0  0  0  0  0  0  0  0  0  0  0
   -2.0282    0.0481   29.5522 H   0  0  0  0  0  0  0  0  0  0  0  0
   -0.4885   -1.7412   28.7575 H   0  0  0  0  0  0  0  0  0  0  0  0
    6.5465   -5.8044   23.1671 H   0  0  0  0  0  0  0  0  0  0  0  0
  1  2  1  0
  2  3  1  0
  3  4  2  0
  4  5  1  0
  5  6  2  0
  6  7  1  0
  7  8  1  0
  8  9  2  0
  8 10  1  0
 10 11  1  0
 11 12  1  0
 11 13  1  0
 13 14  1  0
 14 15  1  0
 15 16  2  0
 15 17  1  0
 17 18  2  0
 18 19  1  0
 19 20  2  0
 20 21  1  0
 21 22  2  0
  6 23  1  0
 23  3  1  0
 22 17  1  0
  1 24  1  0
  1 25  1  0
  1 26  1  0
  2 27  1  0
  2 28  1  0
  4 29  1  0
  7 30  1  0
  7 31  1  0
 10 32  1  0
 11 33  1  0
 12 34  1  0
 12 35  1  0
 12 36  1  0
 13 37  1  0
 13 38  1  0
 14 39  1  0
 18 40  1  0
 19 41  1  0
 21 42  1  0
 22 43  1  0
 23 44  1  0
M  END
>  <Energy>  (454) 
455.9246527611337

>  <compound_id>  (454) 
11943

>  <target_id>  (454) 
1

>  <reference_id>  (454) 
59

>  <inspiration_ids>  (454) 
[80, 59]

>  <energy_score>  (454) 
419.133704781619

>  <distance_score>  (454) 
8.525434754935183

>  <path>  (454) 
/opt/xchem-fragalysis-2/maxwin/BulkDock/SCRATCH/511022/C11943-P59/C11943-P59.minimised.mol

>  <scratch_subdir>  (454) 
/opt/xchem-fragalysis-2/maxwin/BulkDock/SCRATCH/511022/C11943-P59

>  <fragmenstein_runtime>  (454) 
15.756038188934326

>  <fragmenstein_outcome>  (454) 
too moved

>  <fragmenstein_mode>  (454) 
expansion

>  <fragmenstein_error>  (454) 


$$$$
C9625-P80
     RDKit          3D

 44 45  0  0  0  0  0  0  0  0999 V2000
    7.1116    3.9725   17.9375 C   0  0  0  0  0  0  0  0  0  0  0  0
    7.6942    2.5755   17.7887 C   0  0  0  0  0  0  0  0  0  0  0  0
    7.3815    1.5129   18.8537 C   0  0  0  0  0  0  0  0  0  0  0  0
    7.4370    0.1180   18.6289 C   0  0  0  0  0  0  0  0  0  0  0  0
    7.3701   -0.6754   19.7907 N   0  0  0  0  0  0  0  0  0  0  0  0
    6.7387   -0.0167   20.7947 C   0  0  0  0  0  0  0  0  0  0  0  0
    4.8883    0.2898   21.6434 C   0  0  0  0  0  0  0  0  0  0  0  0
    3.2631    1.5099   21.8285 C   0  0  0  0  0  0  0  0  0  0  0  0
    2.5763    1.8259   20.8956 O   0  0  0  0  0  0  0  0  0  0  0  0
    3.2149    1.9508   23.2391 N   0  0  0  0  0  0  0  0  0  0  0  0
    2.3904    2.9681   23.9061 C   0  0  0  0  0  0  0  0  0  0  0  0
    2.6883    4.3818   23.4553 C   0  0  0  0  0  0  0  0  0  0  0  0
    2.6264    2.8549   25.4403 C   0  0  0  0  0  0  0  0  0  0  0  0
    1.3838    2.8994   26.1363 N   0  0  0  0  0  0  0  0  0  0  0  0
    0.6587    3.9901   26.6767 C   0  0  0  0  0  0  0  0  0  0  0  0
    0.9367    5.1470   26.7605 O   0  0  0  0  0  0  0  0  0  0  0  0
   -0.6941    3.4890   27.0893 C   0  0  0  0  0  0  0  0  0  0  0  0
   -1.7656    4.3401   26.9068 C   0  0  0  0  0  0  0  0  0  0  0  0
   -3.0092    3.7583   26.7573 C   0  0  0  0  0  0  0  0  0  0  0  0
   -3.1389    2.3771   26.8508 C   0  0  0  0  0  0  0  0  0  0  0  0
   -2.0282    1.6115   27.1522 C   0  0  0  0  0  0  0  0  0  0  0  0
   -0.7930    2.1270   27.2405 N   0  0  0  0  0  0  0  0  0  0  0  0
    7.5974    1.4092   20.4912 N   0  0  0  0  0  0  0  0  0  0  0  0
    7.3134    4.4227   18.9125 H   0  0  0  0  0  0  0  0  0  0  0  0
    7.5401    4.6315   17.1743 H   0  0  0  0  0  0  0  0  0  0  0  0
    6.0282    3.9745   17.7790 H   0  0  0  0  0  0  0  0  0  0  0  0
    7.3366    2.1874   16.8280 H   0  0  0  0  0  0  0  0  0  0  0  0
    8.7724    2.6455   17.6181 H   0  0  0  0  0  0  0  0  0  0  0  0
    7.6956   -0.1852   17.6229 H   0  0  0  0  0  0  0  0  0  0  0  0
    5.0849    0.5791   22.6100 H   0  0  0  0  0  0  0  0  0  0  0  0
    4.7015   -0.7380   21.9848 H   0  0  0  0  0  0  0  0  0  0  0  0
    3.8794    1.4227   23.7665 H   0  0  0  0  0  0  0  0  0  0  0  0
    1.3370    2.8158   23.6747 H   0  0  0  0  0  0  0  0  0  0  0  0
    3.7362    4.6475   23.6332 H   0  0  0  0  0  0  0  0  0  0  0  0
    2.0580    5.1094   23.9767 H   0  0  0  0  0  0  0  0  0  0  0  0
    2.5070    4.4908   22.3804 H   0  0  0  0  0  0  0  0  0  0  0  0
    3.2708    3.6578   25.8134 H   0  0  0  0  0  0  0  0  0  0  0  0
    3.0722    1.8952   25.7190 H   0  0  0  0  0  0  0  0  0  0  0  0
    0.8668    2.0372   26.3137 H   0  0  0  0  0  0  0  0  0  0  0  0
   -1.6256    5.4077   26.7746 H   0  0  0  0  0  0  0  0  0  0  0  0
   -3.8812    4.3799   26.5697 H   0  0  0  0  0  0  0  0  0  0  0  0
   -4.1174    1.9364   26.7212 H   0  0  0  0  0  0  0  0  0  0  0  0
   -2.1015    0.5379   27.2964 H   0  0  0  0  0  0  0  0  0  0  0  0
    7.4056    2.2184   21.0661 H   0  0  0  0  0  0  0  0  0  0  0  0
  1  2  1  0
  2  3  1  0
  3  4  2  0
  4  5  1  0
  5  6  2  0
  6  7  1  0
  7  8  1  0
  8  9  2  0
  8 10  1  0
 10 11  1  0
 11 12  1  0
 11 13  1  0
 13 14  1  0
 14 15  1  0
 15 16  2  0
 15 17  1  0
 17 18  2  0
 18 19  1  0
 19 20  2  0
 20 21  1  0
 21 22  2  0
  6 23  1  0
 23  3  1  0
 22 17  1  0
  1 24  1  0
  1 25  1  0
  1 26  1  0
  2 27  1  0
  2 28  1  0
  4 29  1  0
  7 30  1  0
  7 31  1  0
 10 32  1  0
 11 33  1  0
 12 34  1  0
 12 35  1  0
 12 36  1  0
 13 37  1  0
 13 38  1  0
 14 39  1  0
 18 40  1  0
 19 41  1  0
 20 42  1  0
 21 43  1  0
 23 44  1  0
M  END
>  <Energy>  (455) 
353.29078536697068

>  <compound_id>  (455) 
9625

>  <target_id>  (455) 
1

>  <reference_id>  (455) 
80

>  <inspiration_ids>  (455) 
[80, 59]

>  <energy_score>  (455) 
267.66052088353985

>  <distance_score>  (455) 
9.42990106323259

>  <path>  (455) 
/opt/xchem-fragalysis-2/maxwin/BulkDock/SCRATCH/511022/C9625-P80/C9625-P80.minimised.mol

>  <scratch_subdir>  (455) 
/opt/xchem-fragalysis-2/maxwin/BulkDock/SCRATCH/511022/C9625-P80

>  <fragmenstein_runtime>  (455) 
15.177955627441406

>  <fragmenstein_outcome>  (455) 
too moved

>  <fragmenstein_mode>  (455) 
expansion

>  <fragmenstein_error>  (455) 


$$$$
C9625-P59
     RDKit          3D

 44 45  0  0  0  0  0  0  0  0999 V2000
    9.5443    0.1964   15.9892 C   0  0  0  0  0  0  0  0  0  0  0  0
    8.1307    0.4731   16.4385 C   0  0  0  0  0  0  0  0  0  0  0  0
    7.8909    0.6152   17.9062 C   0  0  0  0  0  0  0  0  0  0  0  0
    8.2029    1.6241   18.7543 C   0  0  0  0  0  0  0  0  0  0  0  0
    7.5068    1.4484   19.9157 N   0  0  0  0  0  0  0  0  0  0  0  0
    6.6603    0.2992   19.8928 C   0  0  0  0  0  0  0  0  0  0  0  0
    5.2351   -0.4190   21.1885 C   0  0  0  0  0  0  0  0  0  0  0  0
    4.9298   -0.6467   23.1142 C   0  0  0  0  0  0  0  0  0  0  0  0
    4.7929   -1.8007   23.4465 O   0  0  0  0  0  0  0  0  0  0  0  0
    4.9322    0.6078   23.9400 N   0  0  0  0  0  0  0  0  0  0  0  0
    4.8674    0.8030   25.4039 C   0  0  0  0  0  0  0  0  0  0  0  0
    4.4432   -0.4274   26.2191 C   0  0  0  0  0  0  0  0  0  0  0  0
    4.0777    2.0815   25.8179 C   0  0  0  0  0  0  0  0  0  0  0  0
    2.7924    1.8252   26.4333 N   0  0  0  0  0  0  0  0  0  0  0  0
    1.6092    2.6147   26.4904 C   0  0  0  0  0  0  0  0  0  0  0  0
    1.3432    3.6608   25.9787 O   0  0  0  0  0  0  0  0  0  0  0  0
    0.5446    1.8726   27.2804 C   0  0  0  0  0  0  0  0  0  0  0  0
   -0.7749    2.2958   27.2546 C   0  0  0  0  0  0  0  0  0  0  0  0
   -1.7339    1.4822   27.8484 C   0  0  0  0  0  0  0  0  0  0  0  0
   -1.3480    0.2885   28.4505 C   0  0  0  0  0  0  0  0  0  0  0  0
   -0.0040   -0.0430   28.4538 C   0  0  0  0  0  0  0  0  0  0  0  0
    0.9575    0.7186   27.8911 N   0  0  0  0  0  0  0  0  0  0  0  0
    7.0275   -0.1744   18.6514 N   0  0  0  0  0  0  0  0  0  0  0  0
    9.5927    0.2020   14.8947 H   0  0  0  0  0  0  0  0  0  0  0  0
   10.2233    0.9741   16.3455 H   0  0  0  0  0  0  0  0  0  0  0  0
    9.8974   -0.7820   16.3178 H   0  0  0  0  0  0  0  0  0  0  0  0
    7.4606   -0.2815   16.0136 H   0  0  0  0  0  0  0  0  0  0  0  0
    7.8578    1.4397   16.0025 H   0  0  0  0  0  0  0  0  0  0  0  0
    8.8191    2.4997   18.5875 H   0  0  0  0  0  0  0  0  0  0  0  0
    4.3044    0.1521   21.3554 H   0  0  0  0  0  0  0  0  0  0  0  0
    5.0198    0.6671   20.8320 H   0  0  0  0  0  0  0  0  0  0  0  0
    4.9871    1.4004   23.3322 H   0  0  0  0  0  0  0  0  0  0  0  0
    5.9121    1.0013   25.6705 H   0  0  0  0  0  0  0  0  0  0  0  0
    5.0736   -1.2897   25.9803 H   0  0  0  0  0  0  0  0  0  0  0  0
    4.5517   -0.2376   27.2926 H   0  0  0  0  0  0  0  0  0  0  0  0
    3.4099   -0.7007   26.0213 H   0  0  0  0  0  0  0  0  0  0  0  0
    3.9343    2.7657   24.9748 H   0  0  0  0  0  0  0  0  0  0  0  0
    4.6560    2.6223   26.5763 H   0  0  0  0  0  0  0  0  0  0  0  0
    2.6910    1.0306   27.0654 H   0  0  0  0  0  0  0  0  0  0  0  0
   -1.0553    3.2185   26.7567 H   0  0  0  0  0  0  0  0  0  0  0  0
   -2.7781    1.7832   27.8303 H   0  0  0  0  0  0  0  0  0  0  0  0
   -2.0803   -0.3709   28.9023 H   0  0  0  0  0  0  0  0  0  0  0  0
    0.3414   -0.9662   28.9099 H   0  0  0  0  0  0  0  0  0  0  0  0
    6.3671   -0.8501   18.2994 H   0  0  0  0  0  0  0  0  0  0  0  0
  1  2  1  0
  2  3  1  0
  3  4  2  0
  4  5  1  0
  5  6  2  0
  6  7  1  0
  7  8  1  0
  8  9  2  0
  8 10  1  0
 10 11  1  0
 11 12  1  0
 11 13  1  0
 13 14  1  0
 14 15  1  0
 15 16  2  0
 15 17  1  0
 17 18  2  0
 18 19  1  0
 19 20  2  0
 20 21  1  0
 21 22  2  0
  6 23  1  0
 23  3  1  0
 22 17  1  0
  1 24  1  0
  1 25  1  0
  1 26  1  0
  2 27  1  0
  2 28  1  0
  4 29  1  0
  7 30  1  0
  7 31  1  0
 10 32  1  0
 11 33  1  0
 12 34  1  0
 12 35  1  0
 12 36  1  0
 13 37  1  0
 13 38  1  0
 14 39  1  0
 18 40  1  0
 19 41  1  0
 20 42  1  0
 21 43  1  0
 23 44  1  0
M  END
>  <Energy>  (456) 
325.71960132506837

>  <compound_id>  (456) 
9625

>  <target_id>  (456) 
1

>  <reference_id>  (456) 
59

>  <inspiration_ids>  (456) 
[80, 59]

>  <energy_score>  (456) 
240.08933684164333

>  <distance_score>  (456) 
9.011650879992086

>  <path>  (456) 
/opt/xchem-fragalysis-2/maxwin/BulkDock/SCRATCH/511022/C9625-P59/C9625-P59.minimised.mol

>  <scratch_subdir>  (456) 
/opt/xchem-fragalysis-2/maxwin/BulkDock/SCRATCH/511022/C9625-P59

>  <fragmenstein_runtime>  (456) 
13.548383712768555

>  <fragmenstein_outcome>  (456) 
too moved

>  <fragmenstein_mode>  (456) 
expansion

>  <fragmenstein_error>  (456) 


$$$$
C11895-P80
     RDKit          3D

 44 45  0  0  0  0  0  0  0  0999 V2000
    7.5070    0.3469   18.2099 C   0  0  0  0  0  0  0  0  0  0  0  0
    7.2219   -0.1669   19.8514 C   0  0  0  0  0  0  0  0  0  0  0  0
    5.9901   -0.3185   21.1274 C   0  0  0  0  0  0  0  0  0  0  0  0
    4.8388    0.2446   21.9216 C   0  0  0  0  0  0  0  0  0  0  0  0
    4.9296   -0.2906   23.5082 N   0  0  0  0  0  0  0  0  0  0  0  0
    4.9657   -1.5751   23.4233 C   0  0  0  0  0  0  0  0  0  0  0  0
    4.1857   -2.2630   24.5285 C   0  0  0  0  0  0  0  0  0  0  0  0
    4.3003   -1.6658   25.9807 C   0  0  0  0  0  0  0  0  0  0  0  0
    5.2625   -1.0513   26.3402 O   0  0  0  0  0  0  0  0  0  0  0  0
    3.1189   -2.0975   26.7211 N   0  0  0  0  0  0  0  0  0  0  0  0
    2.7927   -2.0003   28.1373 C   0  0  0  0  0  0  0  0  0  0  0  0
    1.4023   -2.5768   28.4524 C   0  0  0  0  0  0  0  0  0  0  0  0
    3.0098   -0.5996   28.7352 C   0  0  0  0  0  0  0  0  0  0  0  0
    1.9254    0.3042   28.4586 N   0  0  0  0  0  0  0  0  0  0  0  0
    0.6828    0.5040   29.1247 C   0  0  0  0  0  0  0  0  0  0  0  0
    0.2505    0.0288   30.1323 O   0  0  0  0  0  0  0  0  0  0  0  0
   -0.1827    1.4596   28.4285 C   0  0  0  0  0  0  0  0  0  0  0  0
   -1.4249    1.0597   27.9412 C   0  0  0  0  0  0  0  0  0  0  0  0
   -2.2129    2.0044   27.2957 C   0  0  0  0  0  0  0  0  0  0  0  0
   -1.7306    3.3003   27.1818 C   0  0  0  0  0  0  0  0  0  0  0  0
   -0.5246    3.6991   27.6419 N   0  0  0  0  0  0  0  0  0  0  0  0
    0.2218    2.7735   28.2762 C   0  0  0  0  0  0  0  0  0  0  0  0
    5.4637   -1.7622   21.9645 N   0  0  0  0  0  0  0  0  0  0  0  0
    7.1191   -0.2217   17.3493 H   0  0  0  0  0  0  0  0  0  0  0  0
    7.3071    1.4276   18.1305 H   0  0  0  0  0  0  0  0  0  0  0  0
    8.5263    0.2639   17.8083 H   0  0  0  0  0  0  0  0  0  0  0  0
    7.6666    0.6544   20.4145 H   0  0  0  0  0  0  0  0  0  0  0  0
    7.8764   -0.9525   19.9696 H   0  0  0  0  0  0  0  0  0  0  0  0
    4.0257    0.9393   21.8026 H   0  0  0  0  0  0  0  0  0  0  0  0
    4.3297   -3.3061   24.7314 H   0  0  0  0  0  0  0  0  0  0  0  0
    3.1604   -2.1957   24.2040 H   0  0  0  0  0  0  0  0  0  0  0  0
    2.4602   -2.5280   26.0749 H   0  0  0  0  0  0  0  0  0  0  0  0
    3.5342   -2.6500   28.6196 H   0  0  0  0  0  0  0  0  0  0  0  0
    1.3503   -3.6252   28.1397 H   0  0  0  0  0  0  0  0  0  0  0  0
    0.6113   -2.0449   27.9156 H   0  0  0  0  0  0  0  0  0  0  0  0
    1.1945   -2.5392   29.5261 H   0  0  0  0  0  0  0  0  0  0  0  0
    3.9337   -0.1343   28.3820 H   0  0  0  0  0  0  0  0  0  0  0  0
    3.0712   -0.6891   29.8260 H   0  0  0  0  0  0  0  0  0  0  0  0
    1.9835    0.9394   27.6686 H   0  0  0  0  0  0  0  0  0  0  0  0
   -1.7668    0.0378   28.0745 H   0  0  0  0  0  0  0  0  0  0  0  0
   -3.1949    1.7628   26.9091 H   0  0  0  0  0  0  0  0  0  0  0  0
   -2.3273    4.0818   26.7173 H   0  0  0  0  0  0  0  0  0  0  0  0
    1.1699    3.1325   28.6661 H   0  0  0  0  0  0  0  0  0  0  0  0
    5.5840   -2.6150   21.4305 H   0  0  0  0  0  0  0  0  0  0  0  0
  1  2  1  0
  2  3  1  0
  3  4  2  0
  4  5  1  0
  5  6  2  0
  6  7  1  0
  7  8  1  0
  8  9  2  0
  8 10  1  0
 10 11  1  0
 11 12  1  0
 11 13  1  0
 13 14  1  0
 14 15  1  0
 15 16  2  0
 15 17  1  0
 17 18  2  0
 18 19  1  0
 19 20  2  0
 20 21  1  0
 21 22  2  0
  6 23  1  0
 23  3  1  0
 22 17  1  0
  1 24  1  0
  1 25  1  0
  1 26  1  0
  2 27  1  0
  2 28  1  0
  4 29  1  0
  7 30  1  0
  7 31  1  0
 10 32  1  0
 11 33  1  0
 12 34  1  0
 12 35  1  0
 12 36  1  0
 13 37  1  0
 13 38  1  0
 14 39  1  0
 18 40  1  0
 19 41  1  0
 20 42  1  0
 22 43  1  0
 23 44  1  0
M  END
>  <Energy>  (457) 
271.31076955829923

>  <compound_id>  (457) 
11895

>  <target_id>  (457) 
1

>  <reference_id>  (457) 
80

>  <inspiration_ids>  (457) 
[80, 59]

>  <energy_score>  (457) 
211.7889009472899

>  <distance_score>  (457) 
8.324183222697288

>  <path>  (457) 
/opt/xchem-fragalysis-2/maxwin/BulkDock/SCRATCH/511022/C11895-P80/C11895-P80.minimised.mol

>  <scratch_subdir>  (457) 
/opt/xchem-fragalysis-2/maxwin/BulkDock/SCRATCH/511022/C11895-P80

>  <fragmenstein_runtime>  (457) 
16.195906400680542

>  <fragmenstein_outcome>  (457) 
too moved

>  <fragmenstein_mode>  (457) 
expansion

>  <fragmenstein_error>  (457) 


$$$$
C11895-P59
     RDKit          3D

 44 45  0  0  0  0  0  0  0  0999 V2000
    9.0219    1.4866   15.6914 C   0  0  0  0  0  0  0  0  0  0  0  0
    8.3590    0.3027   16.3784 C   0  0  0  0  0  0  0  0  0  0  0  0
    7.8288    0.6404   17.7361 C   0  0  0  0  0  0  0  0  0  0  0  0
    8.2113    1.5740   18.6447 C   0  0  0  0  0  0  0  0  0  0  0  0
    7.5760    1.3437   19.8284 N   0  0  0  0  0  0  0  0  0  0  0  0
    6.7300    0.2236   19.7846 C   0  0  0  0  0  0  0  0  0  0  0  0
    5.4806   -0.6432   21.1620 C   0  0  0  0  0  0  0  0  0  0  0  0
    4.9353   -0.7042   23.0673 C   0  0  0  0  0  0  0  0  0  0  0  0
    4.7257   -1.8381   23.4273 O   0  0  0  0  0  0  0  0  0  0  0  0
    4.9391    0.5884   23.8597 N   0  0  0  0  0  0  0  0  0  0  0  0
    4.7081    0.8434   25.3020 C   0  0  0  0  0  0  0  0  0  0  0  0
    4.3956   -0.3981   26.1501 C   0  0  0  0  0  0  0  0  0  0  0  0
    3.6852    2.0001   25.5516 C   0  0  0  0  0  0  0  0  0  0  0  0
    2.7456    1.7749   26.6460 N   0  0  0  0  0  0  0  0  0  0  0  0
    1.3593    2.1023   26.7747 C   0  0  0  0  0  0  0  0  0  0  0  0
    0.6313    2.7152   26.0520 O   0  0  0  0  0  0  0  0  0  0  0  0
    0.7305    1.4791   27.9688 C   0  0  0  0  0  0  0  0  0  0  0  0
   -0.3264    0.5810   27.7937 C   0  0  0  0  0  0  0  0  0  0  0  0
   -0.8653   -0.0723   28.8972 C   0  0  0  0  0  0  0  0  0  0  0  0
   -0.3307    0.2088   30.1428 C   0  0  0  0  0  0  0  0  0  0  0  0
    0.6714    1.0938   30.3544 N   0  0  0  0  0  0  0  0  0  0  0  0
    1.1755    1.7183   29.2589 C   0  0  0  0  0  0  0  0  0  0  0  0
    6.7591    0.0214   18.3576 N   0  0  0  0  0  0  0  0  0  0  0  0
    9.9335    1.7874   16.2184 H   0  0  0  0  0  0  0  0  0  0  0  0
    9.3061    1.2214   14.6682 H   0  0  0  0  0  0  0  0  0  0  0  0
    8.3586    2.3561   15.6573 H   0  0  0  0  0  0  0  0  0  0  0  0
    7.5555   -0.1059   15.7622 H   0  0  0  0  0  0  0  0  0  0  0  0
    9.1078   -0.4917   16.4573 H   0  0  0  0  0  0  0  0  0  0  0  0
    8.9461    2.3648   18.5485 H   0  0  0  0  0  0  0  0  0  0  0  0
    4.7108    0.1904   21.1226 H   0  0  0  0  0  0  0  0  0  0  0  0
    5.5489   -1.7465   20.8845 H   0  0  0  0  0  0  0  0  0  0  0  0
    5.0684    1.3560   23.2348 H   0  0  0  0  0  0  0  0  0  0  0  0
    5.6795    1.2130   25.6533 H   0  0  0  0  0  0  0  0  0  0  0  0
    5.0559   -1.2320   25.8945 H   0  0  0  0  0  0  0  0  0  0  0  0
    4.5555   -0.1898   27.2137 H   0  0  0  0  0  0  0  0  0  0  0  0
    3.3647   -0.7165   26.0253 H   0  0  0  0  0  0  0  0  0  0  0  0
    4.2295    2.9211   25.7892 H   0  0  0  0  0  0  0  0  0  0  0  0
    3.0996    2.2066   24.6491 H   0  0  0  0  0  0  0  0  0  0  0  0
    3.0557    1.3128   27.4925 H   0  0  0  0  0  0  0  0  0  0  0  0
   -0.7185    0.3776   26.8014 H   0  0  0  0  0  0  0  0  0  0  0  0
   -1.6745   -0.7849   28.7794 H   0  0  0  0  0  0  0  0  0  0  0  0
   -0.7098   -0.2804   31.0356 H   0  0  0  0  0  0  0  0  0  0  0  0
    1.9695    2.4313   29.4611 H   0  0  0  0  0  0  0  0  0  0  0  0
    6.0842   -0.6169   17.9610 H   0  0  0  0  0  0  0  0  0  0  0  0
  1  2  1  0
  2  3  1  0
  3  4  2  0
  4  5  1  0
  5  6  2  0
  6  7  1  0
  7  8  1  0
  8  9  2  0
  8 10  1  0
 10 11  1  0
 11 12  1  0
 11 13  1  0
 13 14  1  0
 14 15  1  0
 15 16  2  0
 15 17  1  0
 17 18  2  0
 18 19  1  0
 19 20  2  0
 20 21  1  0
 21 22  2  0
  6 23  1  0
 23  3  1  0
 22 17  1  0
  1 24  1  0
  1 25  1  0
  1 26  1  0
  2 27  1  0
  2 28  1  0
  4 29  1  0
  7 30  1  0
  7 31  1  0
 10 32  1  0
 11 33  1  0
 12 34  1  0
 12 35  1  0
 12 36  1  0
 13 37  1  0
 13 38  1  0
 14 39  1  0
 18 40  1  0
 19 41  1  0
 20 42  1  0
 22 43  1  0
 23 44  1  0
M  END
>  <Energy>  (458) 
253.81808720999493

>  <compound_id>  (458) 
11895

>  <target_id>  (458) 
1

>  <reference_id>  (458) 
59

>  <inspiration_ids>  (458) 
[80, 59]

>  <energy_score>  (458) 
194.2962185989876

>  <distance_score>  (458) 
8.835694622668305

>  <path>  (458) 
/opt/xchem-fragalysis-2/maxwin/BulkDock/SCRATCH/511022/C11895-P59/C11895-P59.minimised.mol

>  <scratch_subdir>  (458) 
/opt/xchem-fragalysis-2/maxwin/BulkDock/SCRATCH/511022/C11895-P59

>  <fragmenstein_runtime>  (458) 
17.542118787765503

>  <fragmenstein_outcome>  (458) 
too moved

>  <fragmenstein_mode>  (458) 
expansion

>  <fragmenstein_error>  (458) 


$$$$
C8990-P80
     RDKit          3D

 41 42  0  0  0  0  0  0  0  0999 V2000
    8.5962    2.4168   16.8919 C   0  0  0  0  0  0  0  0  0  0  0  0
    7.5389    2.5430   17.9906 C   0  0  0  0  0  0  0  0  0  0  0  0
    7.3352    1.2749   18.8656 C   0  0  0  0  0  0  0  0  0  0  0  0
    7.5382   -0.0337   18.4750 C   0  0  0  0  0  0  0  0  0  0  0  0
    7.6530   -0.9271   19.5879 N   0  0  0  0  0  0  0  0  0  0  0  0
    6.9505   -0.5273   20.6644 C   0  0  0  0  0  0  0  0  0  0  0  0
    5.5536   -1.4520   21.8218 C   0  0  0  0  0  0  0  0  0  0  0  0
    5.2514   -1.5155   23.7989 C   0  0  0  0  0  0  0  0  0  0  0  0
    5.6199   -2.5393   24.2266 O   0  0  0  0  0  0  0  0  0  0  0  0
    4.6220   -0.4413   24.4589 N   0  0  0  0  0  0  0  0  0  0  0  0
    4.1404   -0.3003   25.8522 C   0  0  0  0  0  0  0  0  0  0  0  0
    5.0990    0.2690   26.8969 C   0  0  0  0  0  0  0  0  0  0  0  0
    3.5623   -1.6159   26.4299 C   0  0  0  0  0  0  0  0  0  0  0  0
    2.4661   -1.3556   27.3489 N   0  0  0  0  0  0  0  0  0  0  0  0
    1.6594   -2.2407   28.1130 C   0  0  0  0  0  0  0  0  0  0  0  0
    1.7218   -3.4254   28.2608 O   0  0  0  0  0  0  0  0  0  0  0  0
    0.6201   -1.4567   28.8187 C   0  0  0  0  0  0  0  0  0  0  0  0
   -0.3902   -2.0113   29.5848 C   0  0  0  0  0  0  0  0  0  0  0  0
   -1.3706   -0.7800   30.2595 S   0  0  0  0  0  0  0  0  0  0  0  0
   -0.4098    0.3990   29.4729 C   0  0  0  0  0  0  0  0  0  0  0  0
    0.5931   -0.0531   28.7548 N   0  0  0  0  0  0  0  0  0  0  0  0
    7.5599    0.8925   20.4814 N   0  0  0  0  0  0  0  0  0  0  0  0
    9.6033    2.2492   17.2713 H   0  0  0  0  0  0  0  0  0  0  0  0
    8.3696    1.5957   16.2085 H   0  0  0  0  0  0  0  0  0  0  0  0
    8.6221    3.3373   16.2984 H   0  0  0  0  0  0  0  0  0  0  0  0
    6.6383    2.8110   17.4490 H   0  0  0  0  0  0  0  0  0  0  0  0
    7.6706    3.4645   18.5526 H   0  0  0  0  0  0  0  0  0  0  0  0
    7.8134   -0.2201   17.4396 H   0  0  0  0  0  0  0  0  0  0  0  0
    5.5312   -2.4737   21.4132 H   0  0  0  0  0  0  0  0  0  0  0  0
    4.8188   -0.6311   21.7965 H   0  0  0  0  0  0  0  0  0  0  0  0
    4.3618    0.2594   23.7687 H   0  0  0  0  0  0  0  0  0  0  0  0
    3.3272    0.4289   25.7625 H   0  0  0  0  0  0  0  0  0  0  0  0
    5.4788    1.2536   26.6164 H   0  0  0  0  0  0  0  0  0  0  0  0
    5.9641   -0.3884   27.0360 H   0  0  0  0  0  0  0  0  0  0  0  0
    4.6063    0.3828   27.8687 H   0  0  0  0  0  0  0  0  0  0  0  0
    4.3182   -2.1845   26.9811 H   0  0  0  0  0  0  0  0  0  0  0  0
    3.1968   -2.2779   25.6470 H   0  0  0  0  0  0  0  0  0  0  0  0
    2.1676   -0.4004   27.5267 H   0  0  0  0  0  0  0  0  0  0  0  0
   -0.5770   -3.0598   29.7690 H   0  0  0  0  0  0  0  0  0  0  0  0
   -0.6207    1.4564   29.5665 H   0  0  0  0  0  0  0  0  0  0  0  0
    7.4909    1.6441   21.1592 H   0  0  0  0  0  0  0  0  0  0  0  0
  1  2  1  0
  2  3  1  0
  3  4  2  0
  4  5  1  0
  5  6  2  0
  6  7  1  0
  7  8  1  0
  8  9  2  0
  8 10  1  0
 10 11  1  0
 11 12  1  0
 11 13  1  0
 13 14  1  0
 14 15  1  0
 15 16  2  0
 15 17  1  0
 17 18  2  0
 18 19  1  0
 19 20  1  0
 20 21  2  0
  6 22  1  0
 22  3  1  0
 21 17  1  0
  1 23  1  0
  1 24  1  0
  1 25  1  0
  2 26  1  0
  2 27  1  0
  4 28  1  0
  7 29  1  0
  7 30  1  0
 10 31  1  0
 11 32  1  0
 12 33  1  0
 12 34  1  0
 12 35  1  0
 13 36  1  0
 13 37  1  0
 14 38  1  0
 18 39  1  0
 20 40  1  0
 22 41  1  0
M  END
>  <Energy>  (459) 
276.9713774050195

>  <compound_id>  (459) 
8990

>  <target_id>  (459) 
1

>  <reference_id>  (459) 
80

>  <inspiration_ids>  (459) 
[80, 59]

>  <energy_score>  (459) 
169.58293547712282

>  <distance_score>  (459) 
8.633489291774007

>  <path>  (459) 
/opt/xchem-fragalysis-2/maxwin/BulkDock/SCRATCH/511022/C8990-P80/C8990-P80.minimised.mol

>  <scratch_subdir>  (459) 
/opt/xchem-fragalysis-2/maxwin/BulkDock/SCRATCH/511022/C8990-P80

>  <fragmenstein_runtime>  (459) 
11.833683013916016

>  <fragmenstein_outcome>  (459) 
too moved

>  <fragmenstein_mode>  (459) 
expansion

>  <fragmenstein_error>  (459) 


$$$$
C8990-P59
     RDKit          3D

 41 42  0  0  0  0  0  0  0  0999 V2000
    6.2694    0.4354   20.1209 C   0  0  0  0  0  0  0  0  0  0  0  0
    4.6208    0.6363   21.3116 C   0  0  0  0  0  0  0  0  0  0  0  0
    4.6474    1.4018   23.0662 C   0  0  0  0  0  0  0  0  0  0  0  0
    4.8637    0.8577   24.3316 C   0  0  0  0  0  0  0  0  0  0  0  0
    4.5841    1.7635   25.3162 N   0  0  0  0  0  0  0  0  0  0  0  0
    4.0061    2.7806   24.7198 C   0  0  0  0  0  0  0  0  0  0  0  0
    3.4382    4.0065   25.3524 C   0  0  0  0  0  0  0  0  0  0  0  0
    3.0219    3.7748   26.8133 C   0  0  0  0  0  0  0  0  0  0  0  0
    3.5628    4.4111   27.6733 O   0  0  0  0  0  0  0  0  0  0  0  0
    1.9279    2.8414   26.8826 N   0  0  0  0  0  0  0  0  0  0  0  0
    1.2021    2.3065   28.0229 C   0  0  0  0  0  0  0  0  0  0  0  0
   -0.2829    2.1066   27.6910 C   0  0  0  0  0  0  0  0  0  0  0  0
    1.8916    1.0163   28.5175 C   0  0  0  0  0  0  0  0  0  0  0  0
    1.0577    0.2623   29.4149 N   0  0  0  0  0  0  0  0  0  0  0  0
    0.4790   -1.0287   29.2867 C   0  0  0  0  0  0  0  0  0  0  0  0
    0.5984   -1.8570   28.4347 O   0  0  0  0  0  0  0  0  0  0  0  0
   -0.4635   -1.2458   30.3994 C   0  0  0  0  0  0  0  0  0  0  0  0
   -1.3819   -2.2788   30.4344 C   0  0  0  0  0  0  0  0  0  0  0  0
   -2.3222   -2.1835   31.8584 S   0  0  0  0  0  0  0  0  0  0  0  0
   -1.4509   -0.7843   32.3256 C   0  0  0  0  0  0  0  0  0  0  0  0
   -0.5304   -0.3643   31.4876 N   0  0  0  0  0  0  0  0  0  0  0  0
    3.9186    2.5555   23.3728 N   0  0  0  0  0  0  0  0  0  0  0  0
    7.0935    1.2636   20.1359 H   0  0  0  0  0  0  0  0  0  0  0  0
    6.7603   -0.5789   20.2030 H   0  0  0  0  0  0  0  0  0  0  0  0
    6.1972    0.4976   18.9761 H   0  0  0  0  0  0  0  0  0  0  0  0
    4.6647   -0.4096   21.6972 H   0  0  0  0  0  0  0  0  0  0  0  0
    3.6443    1.0484   21.1100 H   0  0  0  0  0  0  0  0  0  0  0  0
    5.1510   -0.1448   24.5999 H   0  0  0  0  0  0  0  0  0  0  0  0
    4.1920    4.8021   25.3286 H   0  0  0  0  0  0  0  0  0  0  0  0
    2.5627    4.3674   24.7998 H   0  0  0  0  0  0  0  0  0  0  0  0
    1.7884    2.4284   25.9688 H   0  0  0  0  0  0  0  0  0  0  0  0
    1.2705    3.0545   28.8225 H   0  0  0  0  0  0  0  0  0  0  0  0
   -0.7123    3.0314   27.2900 H   0  0  0  0  0  0  0  0  0  0  0  0
   -0.4136    1.3275   26.9324 H   0  0  0  0  0  0  0  0  0  0  0  0
   -0.8627    1.8297   28.5761 H   0  0  0  0  0  0  0  0  0  0  0  0
    2.8243    1.2561   29.0387 H   0  0  0  0  0  0  0  0  0  0  0  0
    2.1409    0.3685   27.6686 H   0  0  0  0  0  0  0  0  0  0  0  0
    0.7930    0.6557   30.3174 H   0  0  0  0  0  0  0  0  0  0  0  0
   -1.5340   -3.0437   29.6846 H   0  0  0  0  0  0  0  0  0  0  0  0
   -1.6585   -0.2779   33.2594 H   0  0  0  0  0  0  0  0  0  0  0  0
    3.4477    3.1380   22.6893 H   0  0  0  0  0  0  0  0  0  0  0  0
  1  2  1  0
  2  3  1  0
  3  4  2  0
  4  5  1  0
  5  6  2  0
  6  7  1  0
  7  8  1  0
  8  9  2  0
  8 10  1  0
 10 11  1  0
 11 12  1  0
 11 13  1  0
 13 14  1  0
 14 15  1  0
 15 16  2  0
 15 17  1  0
 17 18  2  0
 18 19  1  0
 19 20  1  0
 20 21  2  0
  6 22  1  0
 22  3  1  0
 21 17  1  0
  1 23  1  0
  1 24  1  0
  1 25  1  0
  2 26  1  0
  2 27  1  0
  4 28  1  0
  7 29  1  0
  7 30  1  0
 10 31  1  0
 11 32  1  0
 12 33  1  0
 12 34  1  0
 12 35  1  0
 13 36  1  0
 13 37  1  0
 14 38  1  0
 18 39  1  0
 20 40  1  0
 22 41  1  0
M  END
>  <Energy>  (460) 
166.42271651535583

>  <compound_id>  (460) 
8990

>  <target_id>  (460) 
1

>  <reference_id>  (460) 
59

>  <inspiration_ids>  (460) 
[80, 59]

>  <energy_score>  (460) 
59.03427458745739

>  <distance_score>  (460) 
9.002561395391576

>  <path>  (460) 
/opt/xchem-fragalysis-2/maxwin/BulkDock/SCRATCH/511022/C8990-P59/C8990-P59.minimised.mol

>  <scratch_subdir>  (460) 
/opt/xchem-fragalysis-2/maxwin/BulkDock/SCRATCH/511022/C8990-P59

>  <fragmenstein_runtime>  (460) 
17.06243920326233

>  <fragmenstein_outcome>  (460) 
too moved

>  <fragmenstein_mode>  (460) 
expansion

>  <fragmenstein_error>  (460) 


$$$$
C7727-P80
     RDKit          3D

 41 42  0  0  0  0  0  0  0  0999 V2000
    2.7707   -1.3612   16.1681 C   0  0  0  0  0  0  0  0  0  0  0  0
    4.0494   -1.6057   16.9928 C   0  0  0  0  0  0  0  0  0  0  0  0
    4.0339   -0.8767   18.3646 C   0  0  0  0  0  0  0  0  0  0  0  0
    2.3513   -0.7888   19.1939 C   0  0  0  0  0  0  0  0  0  0  0  0
    2.7184    0.2655   20.9952 N   0  0  0  0  0  0  0  0  0  0  0  0
    4.5111    0.2157   21.4095 C   0  0  0  0  0  0  0  0  0  0  0  0
    4.7817   -1.1143   22.9200 C   0  0  0  0  0  0  0  0  0  0  0  0
    4.4462   -0.8332   24.7418 C   0  0  0  0  0  0  0  0  0  0  0  0
    4.7111    0.2115   25.2567 O   0  0  0  0  0  0  0  0  0  0  0  0
    3.8989   -2.0656   25.3241 N   0  0  0  0  0  0  0  0  0  0  0  0
    3.6024   -2.4242   26.7271 C   0  0  0  0  0  0  0  0  0  0  0  0
    3.3238   -3.9210   26.9519 C   0  0  0  0  0  0  0  0  0  0  0  0
    2.4291   -1.7387   27.4430 C   0  0  0  0  0  0  0  0  0  0  0  0
    2.3763   -0.3301   27.6314 N   0  0  0  0  0  0  0  0  0  0  0  0
    1.8307    0.4532   28.6972 C   0  0  0  0  0  0  0  0  0  0  0  0
    1.3509    0.1219   29.7406 O   0  0  0  0  0  0  0  0  0  0  0  0
    1.7862    1.8820   28.3742 C   0  0  0  0  0  0  0  0  0  0  0  0
    2.3603    2.6376   27.3720 C   0  0  0  0  0  0  0  0  0  0  0  0
    1.9872    3.9698   27.3312 N   0  0  0  0  0  0  0  0  0  0  0  0
    1.1538    4.2244   28.3137 C   0  0  0  0  0  0  0  0  0  0  0  0
    0.7824    2.9146   29.3400 S   0  0  0  0  0  0  0  0  0  0  0  0
    5.3771    0.1683   19.5554 N   0  0  0  0  0  0  0  0  0  0  0  0
    2.5738   -0.2977   16.0014 H   0  0  0  0  0  0  0  0  0  0  0  0
    1.8923   -1.7945   16.6569 H   0  0  0  0  0  0  0  0  0  0  0  0
    2.8679   -1.8435   15.1895 H   0  0  0  0  0  0  0  0  0  0  0  0
    4.0075   -2.6764   17.1849 H   0  0  0  0  0  0  0  0  0  0  0  0
    4.8788   -1.2704   16.3632 H   0  0  0  0  0  0  0  0  0  0  0  0
    1.3259   -0.8572   18.8413 H   0  0  0  0  0  0  0  0  0  0  0  0
    3.9624   -1.8342   23.0431 H   0  0  0  0  0  0  0  0  0  0  0  0
    5.4499   -1.8966   22.6262 H   0  0  0  0  0  0  0  0  0  0  0  0
    3.7210   -2.7274   24.5863 H   0  0  0  0  0  0  0  0  0  0  0  0
    4.5152   -2.1461   27.2687 H   0  0  0  0  0  0  0  0  0  0  0  0
    2.2609   -4.1514   27.0676 H   0  0  0  0  0  0  0  0  0  0  0  0
    3.6872   -4.5441   26.1361 H   0  0  0  0  0  0  0  0  0  0  0  0
    3.8091   -4.2530   27.8772 H   0  0  0  0  0  0  0  0  0  0  0  0
    1.4784   -1.9957   26.9815 H   0  0  0  0  0  0  0  0  0  0  0  0
    2.3615   -2.1560   28.4579 H   0  0  0  0  0  0  0  0  0  0  0  0
    2.6184    0.2821   26.8622 H   0  0  0  0  0  0  0  0  0  0  0  0
    3.0551    2.2838   26.6178 H   0  0  0  0  0  0  0  0  0  0  0  0
    0.7267    5.2072   28.4711 H   0  0  0  0  0  0  0  0  0  0  0  0
    6.2505   -0.3673   19.6051 H   0  0  0  0  0  0  0  0  0  0  0  0
  1  2  1  0
  2  3  1  0
  3  4  2  0
  4  5  1  0
  5  6  2  0
  6  7  1  0
  7  8  1  0
  8  9  2  0
  8 10  1  0
 10 11  1  0
 11 12  1  0
 11 13  1  0
 13 14  1  0
 14 15  1  0
 15 16  2  0
 15 17  1  0
 17 18  2  0
 18 19  1  0
 19 20  2  0
 20 21  1  0
  6 22  1  0
 22  3  1  0
 21 17  1  0
  1 23  1  0
  1 24  1  0
  1 25  1  0
  2 26  1  0
  2 27  1  0
  4 28  1  0
  7 29  1  0
  7 30  1  0
 10 31  1  0
 11 32  1  0
 12 33  1  0
 12 34  1  0
 12 35  1  0
 13 36  1  0
 13 37  1  0
 14 38  1  0
 18 39  1  0
 20 40  1  0
 22 41  1  0
M  END
>  <Energy>  (461) 
798.26630826556936

>  <compound_id>  (461) 
7727

>  <target_id>  (461) 
1

>  <reference_id>  (461) 
80

>  <inspiration_ids>  (461) 
[80, 59]

>  <energy_score>  (461) 
747.8331510484561

>  <distance_score>  (461) 
9.269779128234495

>  <path>  (461) 
/opt/xchem-fragalysis-2/maxwin/BulkDock/SCRATCH/511022/C7727-P80/C7727-P80.minimised.mol

>  <scratch_subdir>  (461) 
/opt/xchem-fragalysis-2/maxwin/BulkDock/SCRATCH/511022/C7727-P80

>  <fragmenstein_runtime>  (461) 
12.163074970245361

>  <fragmenstein_outcome>  (461) 
too moved

>  <fragmenstein_mode>  (461) 
expansion

>  <fragmenstein_error>  (461) 


$$$$
C7727-P59
     RDKit          3D

 41 42  0  0  0  0  0  0  0  0999 V2000
    7.8313    1.1512   19.1690 C   0  0  0  0  0  0  0  0  0  0  0  0
    7.2079   -0.2348   19.3717 C   0  0  0  0  0  0  0  0  0  0  0  0
    6.3323   -1.1592   20.6794 C   0  0  0  0  0  0  0  0  0  0  0  0
    5.7136   -2.5139   20.7906 C   0  0  0  0  0  0  0  0  0  0  0  0
    5.3402   -2.7718   22.1628 N   0  0  0  0  0  0  0  0  0  0  0  0
    4.8616   -1.7100   22.8939 C   0  0  0  0  0  0  0  0  0  0  0  0
    4.7414   -1.6281   24.4259 C   0  0  0  0  0  0  0  0  0  0  0  0
    4.3896   -0.2959   25.1439 C   0  0  0  0  0  0  0  0  0  0  0  0
    4.6912    0.7707   24.6882 O   0  0  0  0  0  0  0  0  0  0  0  0
    3.6467   -0.6380   26.3568 N   0  0  0  0  0  0  0  0  0  0  0  0
    2.9628    0.2062   27.3302 C   0  0  0  0  0  0  0  0  0  0  0  0
    3.1479    1.7069   27.1981 C   0  0  0  0  0  0  0  0  0  0  0  0
    3.2589   -0.2630   28.7734 C   0  0  0  0  0  0  0  0  0  0  0  0
    2.0556   -0.7289   29.4248 N   0  0  0  0  0  0  0  0  0  0  0  0
    1.2321   -1.8674   29.1691 C   0  0  0  0  0  0  0  0  0  0  0  0
    1.3698   -2.7724   28.4003 O   0  0  0  0  0  0  0  0  0  0  0  0
    0.0336   -1.8586   30.0163 C   0  0  0  0  0  0  0  0  0  0  0  0
   -1.0973   -2.6396   29.8642 C   0  0  0  0  0  0  0  0  0  0  0  0
   -2.0767   -2.4962   30.8322 N   0  0  0  0  0  0  0  0  0  0  0  0
   -1.6965   -1.5728   31.6858 C   0  0  0  0  0  0  0  0  0  0  0  0
   -0.1741   -0.8462   31.3904 S   0  0  0  0  0  0  0  0  0  0  0  0
    4.9957   -0.7421   21.7942 N   0  0  0  0  0  0  0  0  0  0  0  0
    7.2112    1.8874   18.6622 H   0  0  0  0  0  0  0  0  0  0  0  0
    8.6193    1.0297   18.4109 H   0  0  0  0  0  0  0  0  0  0  0  0
    8.3293    1.5910   20.0241 H   0  0  0  0  0  0  0  0  0  0  0  0
    6.7522   -0.4426   18.4155 H   0  0  0  0  0  0  0  0  0  0  0  0
    8.1359   -0.7618   19.3876 H   0  0  0  0  0  0  0  0  0  0  0  0
    5.5108   -3.2651   20.0358 H   0  0  0  0  0  0  0  0  0  0  0  0
    5.6796   -1.9483   24.8960 H   0  0  0  0  0  0  0  0  0  0  0  0
    4.1115   -2.4561   24.7368 H   0  0  0  0  0  0  0  0  0  0  0  0
    3.6494   -1.6455   26.4752 H   0  0  0  0  0  0  0  0  0  0  0  0
    1.9024    0.0207   27.1167 H   0  0  0  0  0  0  0  0  0  0  0  0
    2.8349    2.0556   26.2085 H   0  0  0  0  0  0  0  0  0  0  0  0
    4.1986    1.9866   27.3303 H   0  0  0  0  0  0  0  0  0  0  0  0
    2.5528    2.2456   27.9431 H   0  0  0  0  0  0  0  0  0  0  0  0
    3.9667   -1.0991   28.7808 H   0  0  0  0  0  0  0  0  0  0  0  0
    3.6701    0.5403   29.3930 H   0  0  0  0  0  0  0  0  0  0  0  0
    1.6685   -0.2105   30.2060 H   0  0  0  0  0  0  0  0  0  0  0  0
   -1.2473   -3.3441   29.0538 H   0  0  0  0  0  0  0  0  0  0  0  0
   -2.3056   -1.2879   32.5342 H   0  0  0  0  0  0  0  0  0  0  0  0
    4.4677    0.1332   21.7734 H   0  0  0  0  0  0  0  0  0  0  0  0
  1  2  1  0
  2  3  1  0
  3  4  2  0
  4  5  1  0
  5  6  2  0
  6  7  1  0
  7  8  1  0
  8  9  2  0
  8 10  1  0
 10 11  1  0
 11 12  1  0
 11 13  1  0
 13 14  1  0
 14 15  1  0
 15 16  2  0
 15 17  1  0
 17 18  2  0
 18 19  1  0
 19 20  2  0
 20 21  1  0
  6 22  1  0
 22  3  1  0
 21 17  1  0
  1 23  1  0
  1 24  1  0
  1 25  1  0
  2 26  1  0
  2 27  1  0
  4 28  1  0
  7 29  1  0
  7 30  1  0
 10 31  1  0
 11 32  1  0
 12 33  1  0
 12 34  1  0
 12 35  1  0
 13 36  1  0
 13 37  1  0
 14 38  1  0
 18 39  1  0
 20 40  1  0
 22 41  1  0
M  END
>  <Energy>  (462) 
176.65975519156723

>  <compound_id>  (462) 
7727

>  <target_id>  (462) 
1

>  <reference_id>  (462) 
59

>  <inspiration_ids>  (462) 
[80, 59]

>  <energy_score>  (462) 
126.2265979744526

>  <distance_score>  (462) 
8.382002451423547

>  <path>  (462) 
/opt/xchem-fragalysis-2/maxwin/BulkDock/SCRATCH/511022/C7727-P59/C7727-P59.minimised.mol

>  <scratch_subdir>  (462) 
/opt/xchem-fragalysis-2/maxwin/BulkDock/SCRATCH/511022/C7727-P59

>  <fragmenstein_runtime>  (462) 
10.035432577133179

>  <fragmenstein_outcome>  (462) 
too moved

>  <fragmenstein_mode>  (462) 
expansion

>  <fragmenstein_error>  (462) 


$$$$
C11944-P80
     RDKit          3D

 41 42  0  0  0  0  0  0  0  0999 V2000
    3.5974   -2.2917   26.0874 C   0  0  0  0  0  0  0  0  0  0  0  0
    4.7765   -1.4309   25.6471 C   0  0  0  0  0  0  0  0  0  0  0  0
    4.7426   -0.1019   26.4785 C   0  0  0  0  0  0  0  0  0  0  0  0
    3.4245    0.2942   26.9287 N   0  0  0  0  0  0  0  0  0  0  0  0
    2.7714    0.1161   28.1882 C   0  0  0  0  0  0  0  0  0  0  0  0
    3.1734   -0.3342   29.2205 O   0  0  0  0  0  0  0  0  0  0  0  0
    1.3282    0.4628   28.1624 C   0  0  0  0  0  0  0  0  0  0  0  0
    0.8635    1.7193   27.7985 C   0  0  0  0  0  0  0  0  0  0  0  0
   -0.5087    1.9042   27.7724 C   0  0  0  0  0  0  0  0  0  0  0  0
   -1.4098    0.9347   28.0569 N   0  0  0  0  0  0  0  0  0  0  0  0
   -0.9219   -0.2692   28.4227 C   0  0  0  0  0  0  0  0  0  0  0  0
    0.4263   -0.5493   28.5003 C   0  0  0  0  0  0  0  0  0  0  0  0
    5.1504   -1.5470   24.1753 N   0  0  0  0  0  0  0  0  0  0  0  0
    4.5142   -2.2552   23.0566 C   0  0  0  0  0  0  0  0  0  0  0  0
    3.4570   -2.8545   23.0774 O   0  0  0  0  0  0  0  0  0  0  0  0
    5.4692   -2.5149   21.1382 C   0  0  0  0  0  0  0  0  0  0  0  0
    5.6385   -2.4132   18.9882 C   0  0  0  0  0  0  0  0  0  0  0  0
    5.1706   -1.5356   17.7683 N   0  0  0  0  0  0  0  0  0  0  0  0
    6.4612   -1.0196   16.6570 C   0  0  0  0  0  0  0  0  0  0  0  0
    7.4917   -0.3843   17.2819 C   0  0  0  0  0  0  0  0  0  0  0  0
    6.7657   -0.8809   18.7906 N   0  0  0  0  0  0  0  0  0  0  0  0
    7.5091   -0.4790   19.9178 C   0  0  0  0  0  0  0  0  0  0  0  0
    2.6632   -1.7497   25.9944 H   0  0  0  0  0  0  0  0  0  0  0  0
    3.5293   -3.1788   25.4718 H   0  0  0  0  0  0  0  0  0  0  0  0
    3.6991   -2.5918   27.1353 H   0  0  0  0  0  0  0  0  0  0  0  0
    5.6833   -1.8582   26.0729 H   0  0  0  0  0  0  0  0  0  0  0  0
    5.2527    0.7403   26.0508 H   0  0  0  0  0  0  0  0  0  0  0  0
    5.2924   -0.3041   27.4093 H   0  0  0  0  0  0  0  0  0  0  0  0
    2.7518    0.6292   26.2532 H   0  0  0  0  0  0  0  0  0  0  0  0
    1.5398    2.5304   27.5569 H   0  0  0  0  0  0  0  0  0  0  0  0
   -0.9391    2.8686   27.5103 H   0  0  0  0  0  0  0  0  0  0  0  0
   -1.6654   -1.0297   28.6441 H   0  0  0  0  0  0  0  0  0  0  0  0
    0.7745   -1.5378   28.7815 H   0  0  0  0  0  0  0  0  0  0  0  0
    5.9147   -1.1139   23.8519 H   0  0  0  0  0  0  0  0  0  0  0  0
    5.8530   -1.5474   21.4158 H   0  0  0  0  0  0  0  0  0  0  0  0
    6.2735   -3.1414   21.1344 H   0  0  0  0  0  0  0  0  0  0  0  0
    6.5560   -1.4827   15.6757 H   0  0  0  0  0  0  0  0  0  0  0  0
    8.4372    0.1299   17.2815 H   0  0  0  0  0  0  0  0  0  0  0  0
    7.2938   -1.0495   20.7525 H   0  0  0  0  0  0  0  0  0  0  0  0
    8.4783   -0.7542   19.6242 H   0  0  0  0  0  0  0  0  0  0  0  0
    7.4793    0.5489   20.1837 H   0  0  0  0  0  0  0  0  0  0  0  0
  1  2  1  0
  2  3  1  0
  3  4  1  0
  4  5  1  0
  5  6  2  0
  5  7  1  0
  7  8  2  0
  8  9  1  0
  9 10  2  0
 10 11  1  0
 11 12  2  0
  2 13  1  0
 13 14  1  0
 14 15  2  0
 14 16  1  0
 16 17  1  0
 17 18  2  0
 18 19  1  0
 19 20  2  0
 20 21  1  0
 21 22  1  0
 12  7  1  0
 21 17  1  0
  1 23  1  0
  1 24  1  0
  1 25  1  0
  2 26  1  0
  3 27  1  0
  3 28  1  0
  4 29  1  0
  8 30  1  0
  9 31  1  0
 11 32  1  0
 12 33  1  0
 13 34  1  0
 16 35  1  0
 16 36  1  0
 19 37  1  0
 20 38  1  0
 22 39  1  0
 22 40  1  0
 22 41  1  0
M  END
>  <Energy>  (463) 
610.87771951851948

>  <compound_id>  (463) 
11944

>  <target_id>  (463) 
1

>  <reference_id>  (463) 
80

>  <inspiration_ids>  (463) 
[80, 59]

>  <energy_score>  (463) 
568.6013385358875

>  <distance_score>  (463) 
8.721673809114398

>  <path>  (463) 
/opt/xchem-fragalysis-2/maxwin/BulkDock/SCRATCH/511022/C11944-P80/C11944-P80.minimised.mol

>  <scratch_subdir>  (463) 
/opt/xchem-fragalysis-2/maxwin/BulkDock/SCRATCH/511022/C11944-P80

>  <fragmenstein_runtime>  (463) 
15.947409868240356

>  <fragmenstein_outcome>  (463) 
too moved

>  <fragmenstein_mode>  (463) 
expansion

>  <fragmenstein_error>  (463) 


$$$$
C11944-P59
     RDKit          3D

 41 42  0  0  0  0  0  0  0  0999 V2000
   -0.7994    4.3812   28.0407 C   0  0  0  0  0  0  0  0  0  0  0  0
   -0.1379    3.0538   28.3794 C   0  0  0  0  0  0  0  0  0  0  0  0
   -0.9009    1.9214   27.6663 C   0  0  0  0  0  0  0  0  0  0  0  0
   -0.5914    0.6380   28.2346 N   0  0  0  0  0  0  0  0  0  0  0  0
   -1.2767   -0.1432   29.2099 C   0  0  0  0  0  0  0  0  0  0  0  0
   -2.3293    0.0302   29.7517 O   0  0  0  0  0  0  0  0  0  0  0  0
   -0.5620   -1.3938   29.6130 C   0  0  0  0  0  0  0  0  0  0  0  0
   -0.8577   -1.9371   30.8661 C   0  0  0  0  0  0  0  0  0  0  0  0
   -0.2222   -3.1029   31.2409 C   0  0  0  0  0  0  0  0  0  0  0  0
    0.6634   -3.7543   30.4603 N   0  0  0  0  0  0  0  0  0  0  0  0
    0.9365   -3.2054   29.2586 C   0  0  0  0  0  0  0  0  0  0  0  0
    0.3467   -2.0495   28.7866 C   0  0  0  0  0  0  0  0  0  0  0  0
    1.2949    3.1042   28.0591 N   0  0  0  0  0  0  0  0  0  0  0  0
    2.2378    2.0478   27.7549 C   0  0  0  0  0  0  0  0  0  0  0  0
    2.0705    0.8695   27.6092 O   0  0  0  0  0  0  0  0  0  0  0  0
    3.6574    2.6644   27.6078 C   0  0  0  0  0  0  0  0  0  0  0  0
    4.5189    1.8145   26.7222 C   0  0  0  0  0  0  0  0  0  0  0  0
    5.4928    1.0117   27.1164 N   0  0  0  0  0  0  0  0  0  0  0  0
    5.7708    0.2172   26.0413 C   0  0  0  0  0  0  0  0  0  0  0  0
    5.0246    0.6151   24.9626 C   0  0  0  0  0  0  0  0  0  0  0  0
    4.3510    1.7237   25.3633 N   0  0  0  0  0  0  0  0  0  0  0  0
    3.5608    2.6004   24.5382 C   0  0  0  0  0  0  0  0  0  0  0  0
   -0.3522    5.1978   28.6175 H   0  0  0  0  0  0  0  0  0  0  0  0
   -0.6630    4.6243   26.9804 H   0  0  0  0  0  0  0  0  0  0  0  0
   -1.8748    4.3606   28.2380 H   0  0  0  0  0  0  0  0  0  0  0  0
   -0.1865    2.9012   29.4636 H   0  0  0  0  0  0  0  0  0  0  0  0
   -0.6502    1.8844   26.6014 H   0  0  0  0  0  0  0  0  0  0  0  0
   -1.9825    2.0621   27.7687 H   0  0  0  0  0  0  0  0  0  0  0  0
    0.3237    0.2262   28.0628 H   0  0  0  0  0  0  0  0  0  0  0  0
   -1.5649   -1.4599   31.5360 H   0  0  0  0  0  0  0  0  0  0  0  0
   -0.4113   -3.5572   32.2095 H   0  0  0  0  0  0  0  0  0  0  0  0
    1.6660   -3.7430   28.6594 H   0  0  0  0  0  0  0  0  0  0  0  0
    0.5930   -1.7028   27.7908 H   0  0  0  0  0  0  0  0  0  0  0  0
    1.8018    3.9719   28.1925 H   0  0  0  0  0  0  0  0  0  0  0  0
    4.0968    2.7251   28.6095 H   0  0  0  0  0  0  0  0  0  0  0  0
    3.5999    3.6783   27.1977 H   0  0  0  0  0  0  0  0  0  0  0  0
    6.4729   -0.6037   26.1091 H   0  0  0  0  0  0  0  0  0  0  0  0
    4.9424    0.2286   23.9662 H   0  0  0  0  0  0  0  0  0  0  0  0
    3.9179    3.6233   24.6848 H   0  0  0  0  0  0  0  0  0  0  0  0
    3.6803    2.3317   23.4895 H   0  0  0  0  0  0  0  0  0  0  0  0
    2.5131    2.5227   24.8319 H   0  0  0  0  0  0  0  0  0  0  0  0
  1  2  1  0
  2  3  1  0
  3  4  1  0
  4  5  1  0
  5  6  2  0
  5  7  1  0
  7  8  2  0
  8  9  1  0
  9 10  2  0
 10 11  1  0
 11 12  2  0
  2 13  1  0
 13 14  1  0
 14 15  2  0
 14 16  1  0
 16 17  1  0
 17 18  2  0
 18 19  1  0
 19 20  2  0
 20 21  1  0
 21 22  1  0
 12  7  1  0
 21 17  1  0
  1 23  1  0
  1 24  1  0
  1 25  1  0
  2 26  1  0
  3 27  1  0
  3 28  1  0
  4 29  1  0
  8 30  1  0
  9 31  1  0
 11 32  1  0
 12 33  1  0
 13 34  1  0
 16 35  1  0
 16 36  1  0
 19 37  1  0
 20 38  1  0
 22 39  1  0
 22 40  1  0
 22 41  1  0
M  END
>  <Energy>  (464) 
22.975047687698055

>  <compound_id>  (464) 
11944

>  <target_id>  (464) 
1

>  <reference_id>  (464) 
59

>  <inspiration_ids>  (464) 
[80, 59]

>  <energy_score>  (464) 
-19.301333294927304

>  <distance_score>  (464) 
8.939005502875931

>  <path>  (464) 
/opt/xchem-fragalysis-2/maxwin/BulkDock/SCRATCH/511022/C11944-P59/C11944-P59.minimised.mol

>  <scratch_subdir>  (464) 
/opt/xchem-fragalysis-2/maxwin/BulkDock/SCRATCH/511022/C11944-P59

>  <fragmenstein_runtime>  (464) 
13.428330421447754

>  <fragmenstein_outcome>  (464) 
too moved

>  <fragmenstein_mode>  (464) 
expansion

>  <fragmenstein_error>  (464) 


$$$$
C7728-P80
     RDKit          3D

 38 39  0  0  0  0  0  0  0  0999 V2000
    5.1211   -1.4350   29.0606 C   0  0  0  0  0  0  0  0  0  0  0  0
    5.6676   -0.3112   28.1610 C   0  0  0  0  0  0  0  0  0  0  0  0
    5.1557    1.0725   28.6348 C   0  0  0  0  0  0  0  0  0  0  0  0
    3.7228    1.1032   28.8644 N   0  0  0  0  0  0  0  0  0  0  0  0
    2.9559    0.8589   30.0485 C   0  0  0  0  0  0  0  0  0  0  0  0
    3.3037    0.6438   31.1711 O   0  0  0  0  0  0  0  0  0  0  0  0
    1.5083    0.8587   29.7857 C   0  0  0  0  0  0  0  0  0  0  0  0
    0.5024    0.5513   30.6888 C   0  0  0  0  0  0  0  0  0  0  0  0
   -0.7952    0.6161   30.2132 N   0  0  0  0  0  0  0  0  0  0  0  0
   -0.7633    0.9682   28.9485 C   0  0  0  0  0  0  0  0  0  0  0  0
    0.7895    1.2327   28.2738 S   0  0  0  0  0  0  0  0  0  0  0  0
    7.1357   -0.3764   28.0584 N   0  0  0  0  0  0  0  0  0  0  0  0
    8.0926    0.5608   27.5019 C   0  0  0  0  0  0  0  0  0  0  0  0
    7.9376    1.6628   27.0551 O   0  0  0  0  0  0  0  0  0  0  0  0
    9.5385    0.0216   27.6100 C   0  0  0  0  0  0  0  0  0  0  0  0
   10.2937   -0.0532   26.3009 C   0  0  0  0  0  0  0  0  0  0  0  0
   10.7799   -1.1792   25.8042 N   0  0  0  0  0  0  0  0  0  0  0  0
   11.5580   -0.8309   24.7319 C   0  0  0  0  0  0  0  0  0  0  0  0
   11.5006    0.5211   24.5141 C   0  0  0  0  0  0  0  0  0  0  0  0
   10.7337    1.0134   25.5380 N   0  0  0  0  0  0  0  0  0  0  0  0
   10.5247    2.4186   25.7903 C   0  0  0  0  0  0  0  0  0  0  0  0
    5.5465   -2.4000   28.7648 H   0  0  0  0  0  0  0  0  0  0  0  0
    5.3944   -1.2668   30.1078 H   0  0  0  0  0  0  0  0  0  0  0  0
    4.0336   -1.5247   28.9860 H   0  0  0  0  0  0  0  0  0  0  0  0
    5.2955   -0.4826   27.1433 H   0  0  0  0  0  0  0  0  0  0  0  0
    5.3835    1.8440   27.8929 H   0  0  0  0  0  0  0  0  0  0  0  0
    5.6473    1.3464   29.5752 H   0  0  0  0  0  0  0  0  0  0  0  0
    3.0915    1.3287   28.1029 H   0  0  0  0  0  0  0  0  0  0  0  0
    0.6734    0.2714   31.7228 H   0  0  0  0  0  0  0  0  0  0  0  0
   -1.6646    1.0904   28.3617 H   0  0  0  0  0  0  0  0  0  0  0  0
    7.6334   -1.1847   28.4162 H   0  0  0  0  0  0  0  0  0  0  0  0
   10.0776    0.6736   28.3080 H   0  0  0  0  0  0  0  0  0  0  0  0
    9.5479   -0.9762   28.0624 H   0  0  0  0  0  0  0  0  0  0  0  0
   12.1067   -1.5773   24.1727 H   0  0  0  0  0  0  0  0  0  0  0  0
   11.9662    1.1504   23.7689 H   0  0  0  0  0  0  0  0  0  0  0  0
   10.4670    2.5955   26.8661 H   0  0  0  0  0  0  0  0  0  0  0  0
    9.6040    2.7248   25.2903 H   0  0  0  0  0  0  0  0  0  0  0  0
   11.3693    2.9827   25.3846 H   0  0  0  0  0  0  0  0  0  0  0  0
  1  2  1  0
  2  3  1  0
  3  4  1  0
  4  5  1  0
  5  6  2  0
  5  7  1  0
  7  8  2  0
  8  9  1  0
  9 10  2  0
 10 11  1  0
  2 12  1  0
 12 13  1  0
 13 14  2  0
 13 15  1  0
 15 16  1  0
 16 17  2  0
 17 18  1  0
 18 19  2  0
 19 20  1  0
 20 21  1  0
 11  7  1  0
 20 16  1  0
  1 22  1  0
  1 23  1  0
  1 24  1  0
  2 25  1  0
  3 26  1  0
  3 27  1  0
  4 28  1  0
  8 29  1  0
 10 30  1  0
 12 31  1  0
 15 32  1  0
 15 33  1  0
 18 34  1  0
 19 35  1  0
 21 36  1  0
 21 37  1  0
 21 38  1  0
M  END
>  <Energy>  (465) 
13.819109456838701

>  <compound_id>  (465) 
7728

>  <target_id>  (465) 
1

>  <reference_id>  (465) 
80

>  <inspiration_ids>  (465) 
[80, 59]

>  <energy_score>  (465) 
-50.24056982102775

>  <distance_score>  (465) 
9.503988852262752

>  <path>  (465) 
/opt/xchem-fragalysis-2/maxwin/BulkDock/SCRATCH/511022/C7728-P80/C7728-P80.minimised.mol

>  <scratch_subdir>  (465) 
/opt/xchem-fragalysis-2/maxwin/BulkDock/SCRATCH/511022/C7728-P80

>  <fragmenstein_runtime>  (465) 
17.84406876564026

>  <fragmenstein_outcome>  (465) 
too moved

>  <fragmenstein_mode>  (465) 
expansion

>  <fragmenstein_error>  (465) 


$$$$
C7728-P59
     RDKit          3D

 38 39  0  0  0  0  0  0  0  0999 V2000
    1.7474    0.6616   30.3343 C   0  0  0  0  0  0  0  0  0  0  0  0
    2.2709    0.8117   28.8372 C   0  0  0  0  0  0  0  0  0  0  0  0
    1.1339    0.5595   27.8052 C   0  0  0  0  0  0  0  0  0  0  0  0
    0.1408   -0.2175   28.4690 N   0  0  0  0  0  0  0  0  0  0  0  0
   -1.3176    0.1022   28.7925 C   0  0  0  0  0  0  0  0  0  0  0  0
   -1.9691    1.0178   28.5036 O   0  0  0  0  0  0  0  0  0  0  0  0
   -1.7639   -0.9513   29.6632 C   0  0  0  0  0  0  0  0  0  0  0  0
   -1.6747   -2.3136   29.5297 C   0  0  0  0  0  0  0  0  0  0  0  0
   -1.8002   -3.0225   30.7062 N   0  0  0  0  0  0  0  0  0  0  0  0
   -2.0105   -2.1892   31.7011 C   0  0  0  0  0  0  0  0  0  0  0  0
   -2.0890   -0.5406   31.2985 S   0  0  0  0  0  0  0  0  0  0  0  0
    3.4555    0.0031   28.4450 N   0  0  0  0  0  0  0  0  0  0  0  0
    4.9811    0.3253   28.5442 C   0  0  0  0  0  0  0  0  0  0  0  0
    5.5335    1.2426   29.0207 O   0  0  0  0  0  0  0  0  0  0  0  0
    5.8022   -0.7585   27.7703 C   0  0  0  0  0  0  0  0  0  0  0  0
    5.7473   -0.6073   26.2506 C   0  0  0  0  0  0  0  0  0  0  0  0
    5.4577   -1.6019   25.4304 N   0  0  0  0  0  0  0  0  0  0  0  0
    4.8177   -1.0088   24.3892 C   0  0  0  0  0  0  0  0  0  0  0  0
    4.9811    0.3597   24.4446 C   0  0  0  0  0  0  0  0  0  0  0  0
    5.6877    0.5928   25.5825 N   0  0  0  0  0  0  0  0  0  0  0  0
    5.9201    1.9024   26.1501 C   0  0  0  0  0  0  0  0  0  0  0  0
    2.5394    1.0042   31.0100 H   0  0  0  0  0  0  0  0  0  0  0  0
    1.5516   -0.3825   30.5953 H   0  0  0  0  0  0  0  0  0  0  0  0
    0.8649    1.2830   30.5124 H   0  0  0  0  0  0  0  0  0  0  0  0
    2.6083    1.8493   28.7216 H   0  0  0  0  0  0  0  0  0  0  0  0
    1.4824    0.0162   26.9273 H   0  0  0  0  0  0  0  0  0  0  0  0
    0.6790    1.5054   27.4964 H   0  0  0  0  0  0  0  0  0  0  0  0
    0.4154   -1.0658   28.9501 H   0  0  0  0  0  0  0  0  0  0  0  0
   -1.4334   -2.8351   28.6117 H   0  0  0  0  0  0  0  0  0  0  0  0
   -2.1379   -2.5317   32.7216 H   0  0  0  0  0  0  0  0  0  0  0  0
    3.3212   -0.8401   27.8921 H   0  0  0  0  0  0  0  0  0  0  0  0
    5.4261   -1.7467   28.0584 H   0  0  0  0  0  0  0  0  0  0  0  0
    6.8461   -0.6990   28.0984 H   0  0  0  0  0  0  0  0  0  0  0  0
    4.3491   -1.5995   23.6219 H   0  0  0  0  0  0  0  0  0  0  0  0
    4.6541    1.1720   23.8145 H   0  0  0  0  0  0  0  0  0  0  0  0
    6.8188    1.8687   26.7697 H   0  0  0  0  0  0  0  0  0  0  0  0
    5.0368    2.2018   26.7175 H   0  0  0  0  0  0  0  0  0  0  0  0
    6.0587    2.6284   25.3552 H   0  0  0  0  0  0  0  0  0  0  0  0
  1  2  1  0
  2  3  1  0
  3  4  1  0
  4  5  1  0
  5  6  2  0
  5  7  1  0
  7  8  2  0
  8  9  1  0
  9 10  2  0
 10 11  1  0
  2 12  1  0
 12 13  1  0
 13 14  2  0
 13 15  1  0
 15 16  1  0
 16 17  2  0
 17 18  1  0
 18 19  2  0
 19 20  1  0
 20 21  1  0
 11  7  1  0
 20 16  1  0
  1 22  1  0
  1 23  1  0
  1 24  1  0
  2 25  1  0
  3 26  1  0
  3 27  1  0
  4 28  1  0
  8 29  1  0
 10 30  1  0
 12 31  1  0
 15 32  1  0
 15 33  1  0
 18 34  1  0
 19 35  1  0
 21 36  1  0
 21 37  1  0
 21 38  1  0
M  END
>  <Energy>  (466) 
59.21468364890849

>  <compound_id>  (466) 
7728

>  <target_id>  (466) 
1

>  <reference_id>  (466) 
59

>  <inspiration_ids>  (466) 
[80, 59]

>  <energy_score>  (466) 
14.698485969519538

>  <distance_score>  (466) 
8.910532108076827

>  <path>  (466) 
/opt/xchem-fragalysis-2/maxwin/BulkDock/SCRATCH/511022/C7728-P59/C7728-P59.minimised.mol

>  <scratch_subdir>  (466) 
/opt/xchem-fragalysis-2/maxwin/BulkDock/SCRATCH/511022/C7728-P59

>  <fragmenstein_runtime>  (466) 
7.9632368087768555

>  <fragmenstein_outcome>  (466) 
too moved

>  <fragmenstein_mode>  (466) 
expansion

>  <fragmenstein_error>  (466) 


$$$$
C11896-P80
     RDKit          3D

 41 42  0  0  0  0  0  0  0  0999 V2000
    4.1739   -1.2808   26.7711 C   0  0  0  0  0  0  0  0  0  0  0  0
    3.4443   -2.3268   25.8640 C   0  0  0  0  0  0  0  0  0  0  0  0
    3.1747   -3.5942   26.7246 C   0  0  0  0  0  0  0  0  0  0  0  0
    2.2683   -3.2921   27.8411 N   0  0  0  0  0  0  0  0  0  0  0  0
    1.0346   -3.8893   28.2337 C   0  0  0  0  0  0  0  0  0  0  0  0
    0.4558   -4.8418   27.8038 O   0  0  0  0  0  0  0  0  0  0  0  0
    0.3914   -3.1021   29.3154 C   0  0  0  0  0  0  0  0  0  0  0  0
    0.9984   -2.9469   30.5598 C   0  0  0  0  0  0  0  0  0  0  0  0
    0.3975   -2.1209   31.5070 C   0  0  0  0  0  0  0  0  0  0  0  0
   -0.7865   -1.4808   31.1727 C   0  0  0  0  0  0  0  0  0  0  0  0
   -1.4002   -1.6147   29.9786 N   0  0  0  0  0  0  0  0  0  0  0  0
   -0.7943   -2.4251   29.0726 C   0  0  0  0  0  0  0  0  0  0  0  0
    4.0729   -2.3741   24.4831 N   0  0  0  0  0  0  0  0  0  0  0  0
    4.8727   -1.3829   23.7429 C   0  0  0  0  0  0  0  0  0  0  0  0
    5.2351   -0.3724   24.1592 O   0  0  0  0  0  0  0  0  0  0  0  0
    5.5076   -1.6010   21.8876 C   0  0  0  0  0  0  0  0  0  0  0  0
    6.9293   -0.6730   20.7687 C   0  0  0  0  0  0  0  0  0  0  0  0
    8.1483   -1.0884   20.3872 N   0  0  0  0  0  0  0  0  0  0  0  0
    8.0269   -0.7413   19.0974 C   0  0  0  0  0  0  0  0  0  0  0  0
    6.7748   -0.6719   18.6759 C   0  0  0  0  0  0  0  0  0  0  0  0
    6.9659    0.2464   19.5405 N   0  0  0  0  0  0  0  0  0  0  0  0
    7.4553    1.7672   19.1207 C   0  0  0  0  0  0  0  0  0  0  0  0
    4.1575   -0.2898   26.3056 H   0  0  0  0  0  0  0  0  0  0  0  0
    3.7028   -1.1474   27.7471 H   0  0  0  0  0  0  0  0  0  0  0  0
    5.2196   -1.5447   26.9437 H   0  0  0  0  0  0  0  0  0  0  0  0
    2.5345   -1.7613   25.7421 H   0  0  0  0  0  0  0  0  0  0  0  0
    2.7957   -4.4388   26.1579 H   0  0  0  0  0  0  0  0  0  0  0  0
    4.0715   -3.9420   27.2302 H   0  0  0  0  0  0  0  0  0  0  0  0
    2.4095   -2.4450   28.3767 H   0  0  0  0  0  0  0  0  0  0  0  0
    1.9276   -3.4604   30.7910 H   0  0  0  0  0  0  0  0  0  0  0  0
    0.8420   -1.9796   32.4867 H   0  0  0  0  0  0  0  0  0  0  0  0
   -1.2877   -0.8285   31.8825 H   0  0  0  0  0  0  0  0  0  0  0  0
   -1.2920   -2.4928   28.1117 H   0  0  0  0  0  0  0  0  0  0  0  0
    3.8294   -3.1054   23.8614 H   0  0  0  0  0  0  0  0  0  0  0  0
    5.4914   -2.6055   21.4590 H   0  0  0  0  0  0  0  0  0  0  0  0
    4.8463   -0.7341   21.7672 H   0  0  0  0  0  0  0  0  0  0  0  0
    8.5296   -0.3127   18.2322 H   0  0  0  0  0  0  0  0  0  0  0  0
    6.2476   -0.8348   17.7366 H   0  0  0  0  0  0  0  0  0  0  0  0
    7.5945    2.1521   20.1328 H   0  0  0  0  0  0  0  0  0  0  0  0
    6.8954    2.4417   18.4578 H   0  0  0  0  0  0  0  0  0  0  0  0
    8.1766    1.7203   18.2702 H   0  0  0  0  0  0  0  0  0  0  0  0
  1  2  1  0
  2  3  1  0
  3  4  1  0
  4  5  1  0
  5  6  2  0
  5  7  1  0
  7  8  2  0
  8  9  1  0
  9 10  2  0
 10 11  1  0
 11 12  2  0
  2 13  1  0
 13 14  1  0
 14 15  2  0
 14 16  1  0
 16 17  1  0
 17 18  2  0
 18 19  1  0
 19 20  2  0
 20 21  1  0
 21 22  1  0
 12  7  1  0
 21 17  1  0
  1 23  1  0
  1 24  1  0
  1 25  1  0
  2 26  1  0
  3 27  1  0
  3 28  1  0
  4 29  1  0
  8 30  1  0
  9 31  1  0
 10 32  1  0
 12 33  1  0
 13 34  1  0
 16 35  1  0
 16 36  1  0
 19 37  1  0
 20 38  1  0
 22 39  1  0
 22 40  1  0
 22 41  1  0
M  END
>  <Energy>  (467) 
434.789599346084

>  <compound_id>  (467) 
11896

>  <target_id>  (467) 
1

>  <reference_id>  (467) 
80

>  <inspiration_ids>  (467) 
[80, 59]

>  <energy_score>  (467) 
377.57845049056317

>  <distance_score>  (467) 
8.198878905929842

>  <path>  (467) 
/opt/xchem-fragalysis-2/maxwin/BulkDock/SCRATCH/511022/C11896-P80/C11896-P80.minimised.mol

>  <scratch_subdir>  (467) 
/opt/xchem-fragalysis-2/maxwin/BulkDock/SCRATCH/511022/C11896-P80

>  <fragmenstein_runtime>  (467) 
12.935739278793335

>  <fragmenstein_outcome>  (467) 
too moved

>  <fragmenstein_mode>  (467) 
expansion

>  <fragmenstein_error>  (467) 


$$$$
C11896-P59
     RDKit          3D

 41 42  0  0  0  0  0  0  0  0999 V2000
    4.9136    1.0447   28.5949 C   0  0  0  0  0  0  0  0  0  0  0  0
    5.7950    0.1069   27.5980 C   0  0  0  0  0  0  0  0  0  0  0  0
    4.7896   -0.6229   26.6421 C   0  0  0  0  0  0  0  0  0  0  0  0
    3.4068   -0.6490   27.1488 N   0  0  0  0  0  0  0  0  0  0  0  0
    2.7442   -1.5537   28.2158 C   0  0  0  0  0  0  0  0  0  0  0  0
    3.1705   -2.4677   28.8020 O   0  0  0  0  0  0  0  0  0  0  0  0
    1.3702   -1.0832   28.5709 C   0  0  0  0  0  0  0  0  0  0  0  0
    0.2707   -1.9327   28.4565 C   0  0  0  0  0  0  0  0  0  0  0  0
   -1.0035   -1.4513   28.7418 C   0  0  0  0  0  0  0  0  0  0  0  0
   -1.1278   -0.1490   29.1877 C   0  0  0  0  0  0  0  0  0  0  0  0
   -0.0808    0.6719   29.4106 N   0  0  0  0  0  0  0  0  0  0  0  0
    1.1441    0.1828   29.0982 C   0  0  0  0  0  0  0  0  0  0  0  0
    7.0218    0.7181   26.8268 N   0  0  0  0  0  0  0  0  0  0  0  0
    8.2894   -0.0068   26.1364 C   0  0  0  0  0  0  0  0  0  0  0  0
    8.5278   -1.1569   25.9943 O   0  0  0  0  0  0  0  0  0  0  0  0
    9.4035    1.0597   25.6114 C   0  0  0  0  0  0  0  0  0  0  0  0
   10.4845    0.7049   24.3980 C   0  0  0  0  0  0  0  0  0  0  0  0
   10.8817    1.5758   23.4593 N   0  0  0  0  0  0  0  0  0  0  0  0
   12.0788    1.1274   22.9342 C   0  0  0  0  0  0  0  0  0  0  0  0
   12.3573   -0.1266   23.4047 C   0  0  0  0  0  0  0  0  0  0  0  0
   11.3572   -0.3851   24.3284 N   0  0  0  0  0  0  0  0  0  0  0  0
   11.3852   -1.5075   25.2403 C   0  0  0  0  0  0  0  0  0  0  0  0
    5.6075    1.6445   29.1934 H   0  0  0  0  0  0  0  0  0  0  0  0
    4.3169    0.4428   29.2824 H   0  0  0  0  0  0  0  0  0  0  0  0
    4.2888    1.7346   28.0201 H   0  0  0  0  0  0  0  0  0  0  0  0
    6.2574   -0.6577   28.2353 H   0  0  0  0  0  0  0  0  0  0  0  0
    5.1141   -1.6567   26.4859 H   0  0  0  0  0  0  0  0  0  0  0  0
    4.7553   -0.1174   25.6714 H   0  0  0  0  0  0  0  0  0  0  0  0
    2.7750    0.1068   26.9055 H   0  0  0  0  0  0  0  0  0  0  0  0
    0.4030   -2.9535   28.1147 H   0  0  0  0  0  0  0  0  0  0  0  0
   -1.8792   -2.0756   28.6011 H   0  0  0  0  0  0  0  0  0  0  0  0
   -2.1047    0.2746   29.4017 H   0  0  0  0  0  0  0  0  0  0  0  0
    1.9619    0.8721   29.2823 H   0  0  0  0  0  0  0  0  0  0  0  0
    7.1738    1.7201   26.8519 H   0  0  0  0  0  0  0  0  0  0  0  0
    8.9000    1.9863   25.3188 H   0  0  0  0  0  0  0  0  0  0  0  0
   10.0293    1.2895   26.4835 H   0  0  0  0  0  0  0  0  0  0  0  0
   12.6560    1.7429   22.2571 H   0  0  0  0  0  0  0  0  0  0  0  0
   13.1793   -0.8087   23.2376 H   0  0  0  0  0  0  0  0  0  0  0  0
   11.1564   -1.1578   26.2491 H   0  0  0  0  0  0  0  0  0  0  0  0
   12.3863   -1.9478   25.2376 H   0  0  0  0  0  0  0  0  0  0  0  0
   10.6616   -2.2495   24.9007 H   0  0  0  0  0  0  0  0  0  0  0  0
  1  2  1  0
  2  3  1  0
  3  4  1  0
  4  5  1  0
  5  6  2  0
  5  7  1  0
  7  8  2  0
  8  9  1  0
  9 10  2  0
 10 11  1  0
 11 12  2  0
  2 13  1  0
 13 14  1  0
 14 15  2  0
 14 16  1  0
 16 17  1  0
 17 18  2  0
 18 19  1  0
 19 20  2  0
 20 21  1  0
 21 22  1  0
 12  7  1  0
 21 17  1  0
  1 23  1  0
  1 24  1  0
  1 25  1  0
  2 26  1  0
  3 27  1  0
  3 28  1  0
  4 29  1  0
  8 30  1  0
  9 31  1  0
 10 32  1  0
 12 33  1  0
 13 34  1  0
 16 35  1  0
 16 36  1  0
 19 37  1  0
 20 38  1  0
 22 39  1  0
 22 40  1  0
 22 41  1  0
M  END
>  <Energy>  (468) 
107.44352719126807

>  <compound_id>  (468) 
11896

>  <target_id>  (468) 
1

>  <reference_id>  (468) 
59

>  <inspiration_ids>  (468) 
[80, 59]

>  <energy_score>  (468) 
51.750856909177685

>  <distance_score>  (468) 
9.08146509207478

>  <path>  (468) 
/opt/xchem-fragalysis-2/maxwin/BulkDock/SCRATCH/511022/C11896-P59/C11896-P59.minimised.mol

>  <scratch_subdir>  (468) 
/opt/xchem-fragalysis-2/maxwin/BulkDock/SCRATCH/511022/C11896-P59

>  <fragmenstein_runtime>  (468) 
12.598207712173462

>  <fragmenstein_outcome>  (468) 
too moved

>  <fragmenstein_mode>  (468) 
expansion

>  <fragmenstein_error>  (468) 


$$$$
C46406-P80
     RDKit          3D

 38 39  0  0  0  0  0  0  0  0999 V2000
    3.5529   -1.6236   26.0493 C   0  0  0  0  0  0  0  0  0  0  0  0
    4.2186   -0.3067   25.5933 C   0  0  0  0  0  0  0  0  0  0  0  0
    5.0787    0.2114   26.7701 C   0  0  0  0  0  0  0  0  0  0  0  0
    4.1828    0.4403   27.8999 N   0  0  0  0  0  0  0  0  0  0  0  0
    3.1683    1.4207   28.1054 C   0  0  0  0  0  0  0  0  0  0  0  0
    2.8427    2.3582   27.4402 O   0  0  0  0  0  0  0  0  0  0  0  0
    2.3859    1.0924   29.3064 C   0  0  0  0  0  0  0  0  0  0  0  0
    1.2079    1.6923   29.6974 C   0  0  0  0  0  0  0  0  0  0  0  0
    0.7347    1.0383   30.7939 O   0  0  0  0  0  0  0  0  0  0  0  0
    1.6643    0.0705   31.0200 C   0  0  0  0  0  0  0  0  0  0  0  0
    2.6692    0.0449   30.1727 N   0  0  0  0  0  0  0  0  0  0  0  0
    4.7291   -0.3864   24.1928 N   0  0  0  0  0  0  0  0  0  0  0  0
    5.3378   -1.4513   23.4670 C   0  0  0  0  0  0  0  0  0  0  0  0
    5.6370   -2.4822   23.8770 O   0  0  0  0  0  0  0  0  0  0  0  0
    5.9124   -1.2874   21.4667 C   0  0  0  0  0  0  0  0  0  0  0  0
    7.1699   -0.2974   20.1295 C   0  0  0  0  0  0  0  0  0  0  0  0
    7.5898    1.0618   20.3937 N   0  0  0  0  0  0  0  0  0  0  0  0
    7.5482    2.0372   19.0394 C   0  0  0  0  0  0  0  0  0  0  0  0
    8.1090    1.4443   17.9657 C   0  0  0  0  0  0  0  0  0  0  0  0
    7.6706   -0.1093   18.4020 N   0  0  0  0  0  0  0  0  0  0  0  0
    7.5688   -0.5018   16.7588 C   0  0  0  0  0  0  0  0  0  0  0  0
    3.3117   -2.2549   25.1960 H   0  0  0  0  0  0  0  0  0  0  0  0
    4.2261   -2.2104   26.6819 H   0  0  0  0  0  0  0  0  0  0  0  0
    2.6460   -1.4312   26.6309 H   0  0  0  0  0  0  0  0  0  0  0  0
    3.3998    0.4146   25.4851 H   0  0  0  0  0  0  0  0  0  0  0  0
    5.5572    1.1661   26.5482 H   0  0  0  0  0  0  0  0  0  0  0  0
    5.8438   -0.5100   27.0718 H   0  0  0  0  0  0  0  0  0  0  0  0
    4.2298   -0.1647   28.7189 H   0  0  0  0  0  0  0  0  0  0  0  0
    0.6122    2.5100   29.3172 H   0  0  0  0  0  0  0  0  0  0  0  0
    1.4885   -0.5798   31.8655 H   0  0  0  0  0  0  0  0  0  0  0  0
    4.5095    0.3629   23.5396 H   0  0  0  0  0  0  0  0  0  0  0  0
    5.1778   -0.4063   21.4833 H   0  0  0  0  0  0  0  0  0  0  0  0
    5.7409   -2.3495   21.1404 H   0  0  0  0  0  0  0  0  0  0  0  0
    7.3853    3.1158   19.0799 H   0  0  0  0  0  0  0  0  0  0  0  0
    8.4842    1.6873   16.9819 H   0  0  0  0  0  0  0  0  0  0  0  0
    7.6072    0.3890   16.1436 H   0  0  0  0  0  0  0  0  0  0  0  0
    6.6076   -0.9737   16.6127 H   0  0  0  0  0  0  0  0  0  0  0  0
    8.4869   -1.0390   16.5009 H   0  0  0  0  0  0  0  0  0  0  0  0
  1  2  1  0
  2  3  1  0
  3  4  1  0
  4  5  1  0
  5  6  2  0
  5  7  1  0
  7  8  2  0
  8  9  1  0
  9 10  1  0
 10 11  2  0
  2 12  1  0
 12 13  1  0
 13 14  2  0
 13 15  1  0
 15 16  1  0
 16 17  2  0
 17 18  1  0
 18 19  2  0
 19 20  1  0
 20 21  1  0
 11  7  1  0
 20 16  1  0
  1 22  1  0
  1 23  1  0
  1 24  1  0
  2 25  1  0
  3 26  1  0
  3 27  1  0
  4 28  1  0
  8 29  1  0
 10 30  1  0
 12 31  1  0
 15 32  1  0
 15 33  1  0
 18 34  1  0
 19 35  1  0
 21 36  1  0
 21 37  1  0
 21 38  1  0
M  END
>  <Energy>  (469) 
484.31449137577033

>  <compound_id>  (469) 
46406

>  <target_id>  (469) 
1

>  <reference_id>  (469) 
80

>  <inspiration_ids>  (469) 
[80, 59]

>  <energy_score>  (469) 
425.11719679360897

>  <distance_score>  (469) 
9.12632660307046

>  <path>  (469) 
/opt/xchem-fragalysis-2/maxwin/BulkDock/SCRATCH/511022/C46406-P80/C46406-P80.minimised.mol

>  <scratch_subdir>  (469) 
/opt/xchem-fragalysis-2/maxwin/BulkDock/SCRATCH/511022/C46406-P80

>  <fragmenstein_runtime>  (469) 
14.12164568901062

>  <fragmenstein_outcome>  (469) 
too moved

>  <fragmenstein_mode>  (469) 
expansion

>  <fragmenstein_error>  (469) 


$$$$
C46406-P59
     RDKit          3D

 38 39  0  0  0  0  0  0  0  0999 V2000
    3.4907   -4.7287   27.2494 C   0  0  0  0  0  0  0  0  0  0  0  0
    4.4619   -3.5701   27.0131 C   0  0  0  0  0  0  0  0  0  0  0  0
    4.2440   -2.4534   28.0693 C   0  0  0  0  0  0  0  0  0  0  0  0
    2.9403   -1.8128   28.0794 N   0  0  0  0  0  0  0  0  0  0  0  0
    1.6665   -2.2855   28.5213 C   0  0  0  0  0  0  0  0  0  0  0  0
    1.3286   -3.3599   28.9245 O   0  0  0  0  0  0  0  0  0  0  0  0
    0.6823   -1.1954   28.4921 C   0  0  0  0  0  0  0  0  0  0  0  0
   -0.6786   -1.3143   28.6734 C   0  0  0  0  0  0  0  0  0  0  0  0
   -1.2266   -0.0684   28.6240 O   0  0  0  0  0  0  0  0  0  0  0  0
   -0.1617    0.7479   28.3953 C   0  0  0  0  0  0  0  0  0  0  0  0
    1.0024    0.1424   28.3073 N   0  0  0  0  0  0  0  0  0  0  0  0
    4.3909   -3.0924   25.6351 N   0  0  0  0  0  0  0  0  0  0  0  0
    4.9089   -1.8958   25.0213 C   0  0  0  0  0  0  0  0  0  0  0  0
    5.4650   -0.9461   25.5049 O   0  0  0  0  0  0  0  0  0  0  0  0
    4.5830   -1.7911   23.4599 C   0  0  0  0  0  0  0  0  0  0  0  0
    5.3204   -2.7126   22.2738 C   0  0  0  0  0  0  0  0  0  0  0  0
    6.3727   -3.4065   22.5692 N   0  0  0  0  0  0  0  0  0  0  0  0
    7.0976   -3.1404   21.4179 C   0  0  0  0  0  0  0  0  0  0  0  0
    6.4015   -1.8664   20.6917 C   0  0  0  0  0  0  0  0  0  0  0  0
    5.4163   -2.7255   20.8144 N   0  0  0  0  0  0  0  0  0  0  0  0
    5.3322   -3.7079   19.7370 C   0  0  0  0  0  0  0  0  0  0  0  0
    3.7570   -5.5757   26.6067 H   0  0  0  0  0  0  0  0  0  0  0  0
    3.5294   -5.0753   28.2869 H   0  0  0  0  0  0  0  0  0  0  0  0
    2.4653   -4.4629   27.0016 H   0  0  0  0  0  0  0  0  0  0  0  0
    5.4851   -3.9439   27.1394 H   0  0  0  0  0  0  0  0  0  0  0  0
    4.3878   -2.8799   29.0690 H   0  0  0  0  0  0  0  0  0  0  0  0
    4.9859   -1.6586   27.9449 H   0  0  0  0  0  0  0  0  0  0  0  0
    2.8739   -0.8133   27.8847 H   0  0  0  0  0  0  0  0  0  0  0  0
   -1.3566   -2.1404   28.8330 H   0  0  0  0  0  0  0  0  0  0  0  0
   -0.3742    1.8051   28.3105 H   0  0  0  0  0  0  0  0  0  0  0  0
    4.0632   -3.7134   24.9160 H   0  0  0  0  0  0  0  0  0  0  0  0
    3.5204   -1.9872   23.3613 H   0  0  0  0  0  0  0  0  0  0  0  0
    4.8227   -0.7651   23.2258 H   0  0  0  0  0  0  0  0  0  0  0  0
    7.9701   -3.7610   21.1541 H   0  0  0  0  0  0  0  0  0  0  0  0
    6.8728   -1.0947   20.0462 H   0  0  0  0  0  0  0  0  0  0  0  0
    4.5117   -4.4104   19.6429 H   0  0  0  0  0  0  0  0  0  0  0  0
    6.1905   -4.3871   19.5602 H   0  0  0  0  0  0  0  0  0  0  0  0
    5.2563   -2.8946   19.0312 H   0  0  0  0  0  0  0  0  0  0  0  0
  1  2  1  0
  2  3  1  0
  3  4  1  0
  4  5  1  0
  5  6  2  0
  5  7  1  0
  7  8  2  0
  8  9  1  0
  9 10  1  0
 10 11  2  0
  2 12  1  0
 12 13  1  0
 13 14  2  0
 13 15  1  0
 15 16  1  0
 16 17  2  0
 17 18  1  0
 18 19  2  0
 19 20  1  0
 20 21  1  0
 11  7  1  0
 20 16  1  0
  1 22  1  0
  1 23  1  0
  1 24  1  0
  2 25  1  0
  3 26  1  0
  3 27  1  0
  4 28  1  0
  8 29  1  0
 10 30  1  0
 12 31  1  0
 15 32  1  0
 15 33  1  0
 18 34  1  0
 19 35  1  0
 21 36  1  0
 21 37  1  0
 21 38  1  0
M  END
>  <Energy>  (470) 
188.30770715340319

>  <compound_id>  (470) 
46406

>  <target_id>  (470) 
1

>  <reference_id>  (470) 
59

>  <inspiration_ids>  (470) 
[80, 59]

>  <energy_score>  (470) 
129.11041257125055

>  <distance_score>  (470) 
8.720407271055143

>  <path>  (470) 
/opt/xchem-fragalysis-2/maxwin/BulkDock/SCRATCH/511022/C46406-P59/C46406-P59.minimised.mol

>  <scratch_subdir>  (470) 
/opt/xchem-fragalysis-2/maxwin/BulkDock/SCRATCH/511022/C46406-P59

>  <fragmenstein_runtime>  (470) 
11.958585977554321

>  <fragmenstein_outcome>  (470) 
too moved

>  <fragmenstein_mode>  (470) 
expansion

>  <fragmenstein_error>  (470) 


$$$$
C46407-P80
     RDKit          3D

 38 39  0  0  0  0  0  0  0  0999 V2000
    3.2876   -1.2205   26.7464 C   0  0  0  0  0  0  0  0  0  0  0  0
    4.0555   -0.0288   26.1335 C   0  0  0  0  0  0  0  0  0  0  0  0
    3.3482    1.3277   26.4391 C   0  0  0  0  0  0  0  0  0  0  0  0
    2.3644    1.2827   27.5053 N   0  0  0  0  0  0  0  0  0  0  0  0
    0.9550    1.5229   27.4918 C   0  0  0  0  0  0  0  0  0  0  0  0
    0.2364    1.9000   26.6143 O   0  0  0  0  0  0  0  0  0  0  0  0
    0.3556    1.1348   28.7602 C   0  0  0  0  0  0  0  0  0  0  0  0
   -0.9589    1.0792   29.1720 C   0  0  0  0  0  0  0  0  0  0  0  0
   -1.0390    0.6084   30.4593 N   0  0  0  0  0  0  0  0  0  0  0  0
    0.2162    0.3865   30.7769 C   0  0  0  0  0  0  0  0  0  0  0  0
    1.1255    0.6787   29.8058 O   0  0  0  0  0  0  0  0  0  0  0  0
    4.4155   -0.2255   24.7043 N   0  0  0  0  0  0  0  0  0  0  0  0
    5.0028   -1.3319   24.0324 C   0  0  0  0  0  0  0  0  0  0  0  0
    5.4249   -2.3489   24.4671 O   0  0  0  0  0  0  0  0  0  0  0  0
    5.1741   -1.3228   22.0968 C   0  0  0  0  0  0  0  0  0  0  0  0
    6.4013   -0.1125   21.0881 C   0  0  0  0  0  0  0  0  0  0  0  0
    6.6152    1.2595   21.7930 N   0  0  0  0  0  0  0  0  0  0  0  0
    7.4941    2.1688   21.1992 C   0  0  0  0  0  0  0  0  0  0  0  0
    7.5697    1.6599   19.9608 C   0  0  0  0  0  0  0  0  0  0  0  0
    7.3278    0.1338   20.0808 N   0  0  0  0  0  0  0  0  0  0  0  0
    7.4792   -0.4651   18.8680 C   0  0  0  0  0  0  0  0  0  0  0  0
    2.2366   -1.2203   26.4695 H   0  0  0  0  0  0  0  0  0  0  0  0
    3.3427   -1.1929   27.8402 H   0  0  0  0  0  0  0  0  0  0  0  0
    3.7129   -2.1769   26.4317 H   0  0  0  0  0  0  0  0  0  0  0  0
    5.0253   -0.0128   26.6478 H   0  0  0  0  0  0  0  0  0  0  0  0
    4.0969    2.0705   26.7354 H   0  0  0  0  0  0  0  0  0  0  0  0
    2.8434    1.7113   25.5463 H   0  0  0  0  0  0  0  0  0  0  0  0
    2.6237    0.8873   28.4050 H   0  0  0  0  0  0  0  0  0  0  0  0
   -1.8377    1.3559   28.6045 H   0  0  0  0  0  0  0  0  0  0  0  0
    0.6104    0.0032   31.7081 H   0  0  0  0  0  0  0  0  0  0  0  0
    4.0889    0.4452   24.0085 H   0  0  0  0  0  0  0  0  0  0  0  0
    5.5307   -2.2650   22.4858 H   0  0  0  0  0  0  0  0  0  0  0  0
    5.5045   -2.1395   21.3962 H   0  0  0  0  0  0  0  0  0  0  0  0
    7.6068    3.1904   21.5540 H   0  0  0  0  0  0  0  0  0  0  0  0
    7.6352    2.0621   18.9377 H   0  0  0  0  0  0  0  0  0  0  0  0
    6.5361   -0.8200   18.4967 H   0  0  0  0  0  0  0  0  0  0  0  0
    8.2231   -1.1205   19.2299 H   0  0  0  0  0  0  0  0  0  0  0  0
    7.9624    0.0627   18.0264 H   0  0  0  0  0  0  0  0  0  0  0  0
  1  2  1  0
  2  3  1  0
  3  4  1  0
  4  5  1  0
  5  6  2  0
  5  7  1  0
  7  8  2  0
  8  9  1  0
  9 10  2  0
 10 11  1  0
  2 12  1  0
 12 13  1  0
 13 14  2  0
 13 15  1  0
 15 16  1  0
 16 17  2  0
 17 18  1  0
 18 19  2  0
 19 20  1  0
 20 21  1  0
 11  7  1  0
 20 16  1  0
  1 22  1  0
  1 23  1  0
  1 24  1  0
  2 25  1  0
  3 26  1  0
  3 27  1  0
  4 28  1  0
  8 29  1  0
 10 30  1  0
 12 31  1  0
 15 32  1  0
 15 33  1  0
 18 34  1  0
 19 35  1  0
 21 36  1  0
 21 37  1  0
 21 38  1  0
M  END
>  <Energy>  (471) 
304.74998967764486

>  <compound_id>  (471) 
46407

>  <target_id>  (471) 
1

>  <reference_id>  (471) 
80

>  <inspiration_ids>  (471) 
[80, 59]

>  <energy_score>  (471) 
253.52556422885306

>  <distance_score>  (471) 
8.962634404155354

>  <path>  (471) 
/opt/xchem-fragalysis-2/maxwin/BulkDock/SCRATCH/511022/C46407-P80/C46407-P80.minimised.mol

>  <scratch_subdir>  (471) 
/opt/xchem-fragalysis-2/maxwin/BulkDock/SCRATCH/511022/C46407-P80

>  <fragmenstein_runtime>  (471) 
16.328492879867554

>  <fragmenstein_outcome>  (471) 
too moved

>  <fragmenstein_mode>  (471) 
expansion

>  <fragmenstein_error>  (471) 


$$$$
C46407-P59
     RDKit          3D

 38 39  0  0  0  0  0  0  0  0999 V2000
    2.9177    5.8954   24.0022 C   0  0  0  0  0  0  0  0  0  0  0  0
    3.9821    4.8750   23.5639 C   0  0  0  0  0  0  0  0  0  0  0  0
    3.3812    3.4503   23.6985 C   0  0  0  0  0  0  0  0  0  0  0  0
    2.7462    3.1265   24.9639 N   0  0  0  0  0  0  0  0  0  0  0  0
    3.2656    2.4900   26.1438 C   0  0  0  0  0  0  0  0  0  0  0  0
    4.3741    2.1361   26.4129 O   0  0  0  0  0  0  0  0  0  0  0  0
    2.1982    2.1797   27.1137 C   0  0  0  0  0  0  0  0  0  0  0  0
    0.8302    2.3776   27.1893 C   0  0  0  0  0  0  0  0  0  0  0  0
    0.3066    1.7958   28.3192 N   0  0  0  0  0  0  0  0  0  0  0  0
    1.3593    1.2819   28.9074 C   0  0  0  0  0  0  0  0  0  0  0  0
    2.5327    1.4674   28.2517 O   0  0  0  0  0  0  0  0  0  0  0  0
    4.4703    5.1445   22.1828 N   0  0  0  0  0  0  0  0  0  0  0  0
    5.5747    5.9900   21.6970 C   0  0  0  0  0  0  0  0  0  0  0  0
    6.3418    6.6937   22.2964 O   0  0  0  0  0  0  0  0  0  0  0  0
    5.6267    5.9957   20.1235 C   0  0  0  0  0  0  0  0  0  0  0  0
    6.8981    5.5353   19.4008 C   0  0  0  0  0  0  0  0  0  0  0  0
    8.1552    5.5685   19.8178 N   0  0  0  0  0  0  0  0  0  0  0  0
    8.9145    4.9144   18.8764 C   0  0  0  0  0  0  0  0  0  0  0  0
    8.1445    4.5779   17.7952 C   0  0  0  0  0  0  0  0  0  0  0  0
    6.9023    5.0800   18.0857 N   0  0  0  0  0  0  0  0  0  0  0  0
    5.8367    5.1691   17.1165 C   0  0  0  0  0  0  0  0  0  0  0  0
    3.2987    6.9151   23.8782 H   0  0  0  0  0  0  0  0  0  0  0  0
    2.6431    5.7703   25.0540 H   0  0  0  0  0  0  0  0  0  0  0  0
    2.0136    5.8079   23.3897 H   0  0  0  0  0  0  0  0  0  0  0  0
    4.8459    4.9797   24.2303 H   0  0  0  0  0  0  0  0  0  0  0  0
    4.1674    2.7066   23.5587 H   0  0  0  0  0  0  0  0  0  0  0  0
    2.6245    3.2895   22.9233 H   0  0  0  0  0  0  0  0  0  0  0  0
    1.7759    3.3574   25.1148 H   0  0  0  0  0  0  0  0  0  0  0  0
    0.1811    2.8925   26.4959 H   0  0  0  0  0  0  0  0  0  0  0  0
    1.4066    0.7339   29.8376 H   0  0  0  0  0  0  0  0  0  0  0  0
    4.0833    4.6192   21.4007 H   0  0  0  0  0  0  0  0  0  0  0  0
    5.4494    7.0396   19.8304 H   0  0  0  0  0  0  0  0  0  0  0  0
    4.7697    5.4367   19.7370 H   0  0  0  0  0  0  0  0  0  0  0  0
    9.9721    4.7409   19.0273 H   0  0  0  0  0  0  0  0  0  0  0  0
    8.3785    4.0893   16.8607 H   0  0  0  0  0  0  0  0  0  0  0  0
    6.2330    5.6422   16.2134 H   0  0  0  0  0  0  0  0  0  0  0  0
    5.4888    4.1609   16.8841 H   0  0  0  0  0  0  0  0  0  0  0  0
    5.0165    5.7751   17.5039 H   0  0  0  0  0  0  0  0  0  0  0  0
  1  2  1  0
  2  3  1  0
  3  4  1  0
  4  5  1  0
  5  6  2  0
  5  7  1  0
  7  8  2  0
  8  9  1  0
  9 10  2  0
 10 11  1  0
  2 12  1  0
 12 13  1  0
 13 14  2  0
 13 15  1  0
 15 16  1  0
 16 17  2  0
 17 18  1  0
 18 19  2  0
 19 20  1  0
 20 21  1  0
 11  7  1  0
 20 16  1  0
  1 22  1  0
  1 23  1  0
  1 24  1  0
  2 25  1  0
  3 26  1  0
  3 27  1  0
  4 28  1  0
  8 29  1  0
 10 30  1  0
 12 31  1  0
 15 32  1  0
 15 33  1  0
 18 34  1  0
 19 35  1  0
 21 36  1  0
 21 37  1  0
 21 38  1  0
M  END
>  <Energy>  (472) 
50.288088342675309

>  <compound_id>  (472) 
46407

>  <target_id>  (472) 
1

>  <reference_id>  (472) 
59

>  <inspiration_ids>  (472) 
[80, 59]

>  <energy_score>  (472) 
-0.9363371061135126

>  <distance_score>  (472) 
10.820052198525826

>  <path>  (472) 
/opt/xchem-fragalysis-2/maxwin/BulkDock/SCRATCH/511022/C46407-P59/C46407-P59.minimised.mol

>  <scratch_subdir>  (472) 
/opt/xchem-fragalysis-2/maxwin/BulkDock/SCRATCH/511022/C46407-P59

>  <fragmenstein_runtime>  (472) 
13.89786982536316

>  <fragmenstein_outcome>  (472) 
too moved

>  <fragmenstein_mode>  (472) 
expansion

>  <fragmenstein_error>  (472) 


$$$$
C11897-P80
     RDKit          3D

 45 47  0  0  0  0  0  0  0  0999 V2000
    1.5246    0.3869   31.4873 C   0  0  0  0  0  0  0  0  0  0  0  0
    2.8349   -0.4328   30.9881 C   0  0  0  0  0  0  0  0  0  0  0  0
    2.4248   -1.9383   30.7081 C   0  0  0  0  0  0  0  0  0  0  0  0
    1.1267   -1.8392   30.1356 N   0  0  0  0  0  0  0  0  0  0  0  0
   -0.1603   -2.6057   30.4495 C   0  0  0  0  0  0  0  0  0  0  0  0
   -0.3503   -3.4945   31.1717 O   0  0  0  0  0  0  0  0  0  0  0  0
   -1.2216   -1.9119   29.6985 C   0  0  0  0  0  0  0  0  0  0  0  0
   -1.8313   -0.9365   30.4839 C   0  0  0  0  0  0  0  0  0  0  0  0
   -2.1175    0.2957   29.9154 C   0  0  0  0  0  0  0  0  0  0  0  0
   -1.8680    0.4951   28.5700 C   0  0  0  0  0  0  0  0  0  0  0  0
   -1.3832   -0.4622   27.7711 N   0  0  0  0  0  0  0  0  0  0  0  0
   -1.0452   -1.6380   28.3593 C   0  0  0  0  0  0  0  0  0  0  0  0
    3.4430    0.1505   29.7456 N   0  0  0  0  0  0  0  0  0  0  0  0
    3.0009    0.0333   28.2429 C   0  0  0  0  0  0  0  0  0  0  0  0
    2.0544   -0.4712   27.7669 O   0  0  0  0  0  0  0  0  0  0  0  0
    4.0419    0.7736   27.3401 C   0  0  0  0  0  0  0  0  0  0  0  0
    4.8502   -0.1638   26.4673 C   0  0  0  0  0  0  0  0  0  0  0  0
    6.0305   -0.6556   26.7911 N   0  0  0  0  0  0  0  0  0  0  0  0
    6.2498   -1.6516   25.8919 C   0  0  0  0  0  0  0  0  0  0  0  0
    5.2695   -1.6511   24.9072 C   0  0  0  0  0  0  0  0  0  0  0  0
    4.4413   -0.6336   25.2419 N   0  0  0  0  0  0  0  0  0  0  0  0
    3.9578   -0.4395   32.0211 C   0  0  0  0  0  0  0  0  0  0  0  0
    4.4672    0.8278   32.6688 C   0  0  0  0  0  0  0  0  0  0  0  0
    3.7466   -0.2012   33.4979 C   0  0  0  0  0  0  0  0  0  0  0  0
    1.8201    1.3705   31.8654 H   0  0  0  0  0  0  0  0  0  0  0  0
    1.0080   -0.1481   32.2901 H   0  0  0  0  0  0  0  0  0  0  0  0
    0.8394    0.5826   30.6585 H   0  0  0  0  0  0  0  0  0  0  0  0
    3.1018   -2.4334   30.0061 H   0  0  0  0  0  0  0  0  0  0  0  0
    2.3586   -2.5204   31.6325 H   0  0  0  0  0  0  0  0  0  0  0  0
    0.9493   -1.1669   29.3864 H   0  0  0  0  0  0  0  0  0  0  0  0
   -1.9119   -1.0666   31.5613 H   0  0  0  0  0  0  0  0  0  0  0  0
   -2.5019    1.0931   30.5295 H   0  0  0  0  0  0  0  0  0  0  0  0
   -2.0724    1.4508   28.0949 H   0  0  0  0  0  0  0  0  0  0  0  0
   -0.4576   -2.3093   27.7409 H   0  0  0  0  0  0  0  0  0  0  0  0
    4.3601    0.5802   29.7972 H   0  0  0  0  0  0  0  0  0  0  0  0
    3.4824    1.4790   26.7140 H   0  0  0  0  0  0  0  0  0  0  0  0
    4.7239    1.3736   27.9509 H   0  0  0  0  0  0  0  0  0  0  0  0
    7.1845   -2.1974   25.9629 H   0  0  0  0  0  0  0  0  0  0  0  0
    5.1056   -2.1399   23.9798 H   0  0  0  0  0  0  0  0  0  0  0  0
    3.6396   -0.3370   24.6971 H   0  0  0  0  0  0  0  0  0  0  0  0
    4.7199   -1.1696   31.7526 H   0  0  0  0  0  0  0  0  0  0  0  0
    5.5388    0.9281   32.8068 H   0  0  0  0  0  0  0  0  0  0  0  0
    3.9666    1.7674   32.4697 H   0  0  0  0  0  0  0  0  0  0  0  0
    4.3341   -0.7943   34.1914 H   0  0  0  0  0  0  0  0  0  0  0  0
    2.7633    0.0498   33.8751 H   0  0  0  0  0  0  0  0  0  0  0  0
  1  2  1  0
  2  3  1  0
  3  4  1  0
  4  5  1  0
  5  6  2  0
  5  7  1  0
  7  8  2  0
  8  9  1  0
  9 10  2  0
 10 11  1  0
 11 12  2  0
  2 13  1  0
 13 14  1  0
 14 15  2  0
 14 16  1  0
 16 17  1  0
 17 18  2  0
 18 19  1  0
 19 20  2  0
 20 21  1  0
  2 22  1  0
 22 23  1  0
 23 24  1  0
 12  7  1  0
 21 17  1  0
 24 22  1  0
  1 25  1  0
  1 26  1  0
  1 27  1  0
  3 28  1  0
  3 29  1  0
  4 30  1  0
  8 31  1  0
  9 32  1  0
 10 33  1  0
 12 34  1  0
 13 35  1  0
 16 36  1  0
 16 37  1  0
 19 38  1  0
 20 39  1  0
 21 40  1  0
 22 41  1  0
 23 42  1  0
 23 43  1  0
 24 44  1  0
 24 45  1  0
M  END
>  <Energy>  (473) 
114.4993963338145

>  <compound_id>  (473) 
11897

>  <target_id>  (473) 
1

>  <reference_id>  (473) 
80

>  <inspiration_ids>  (473) 
[80, 59]

>  <energy_score>  (473) 
14.406565329130785

>  <distance_score>  (473) 
8.440012479839663

>  <path>  (473) 
/opt/xchem-fragalysis-2/maxwin/BulkDock/SCRATCH/511022/C11897-P80/C11897-P80.minimised.mol

>  <scratch_subdir>  (473) 
/opt/xchem-fragalysis-2/maxwin/BulkDock/SCRATCH/511022/C11897-P80

>  <fragmenstein_runtime>  (473) 
15.50862455368042

>  <fragmenstein_outcome>  (473) 
too moved

>  <fragmenstein_mode>  (473) 
expansion

>  <fragmenstein_error>  (473) 


$$$$
C11897-P59
     RDKit          3D

 45 47  0  0  0  0  0  0  0  0999 V2000
    1.7289    1.5543   30.2477 C   0  0  0  0  0  0  0  0  0  0  0  0
    2.2025    0.2443   29.5509 C   0  0  0  0  0  0  0  0  0  0  0  0
    0.9044   -0.6216   29.4986 C   0  0  0  0  0  0  0  0  0  0  0  0
    0.8172   -1.7857   28.6461 N   0  0  0  0  0  0  0  0  0  0  0  0
    0.9242   -3.1772   28.9475 C   0  0  0  0  0  0  0  0  0  0  0  0
    1.1924   -3.7371   29.9659 O   0  0  0  0  0  0  0  0  0  0  0  0
    0.5387   -4.0050   27.8066 C   0  0  0  0  0  0  0  0  0  0  0  0
   -1.0186   -4.1219   27.4890 C   0  0  0  0  0  0  0  0  0  0  0  0
   -1.7380   -5.1333   26.1100 C   0  0  0  0  0  0  0  0  0  0  0  0
   -0.5585   -5.5749   24.9268 C   0  0  0  0  0  0  0  0  0  0  0  0
    1.0307   -5.4770   25.4831 N   0  0  0  0  0  0  0  0  0  0  0  0
    1.5046   -4.7695   26.9850 C   0  0  0  0  0  0  0  0  0  0  0  0
    2.7697    0.5349   28.2246 N   0  0  0  0  0  0  0  0  0  0  0  0
    3.6772    1.5787   27.7867 C   0  0  0  0  0  0  0  0  0  0  0  0
    4.1329    2.5185   28.3785 O   0  0  0  0  0  0  0  0  0  0  0  0
    4.0457    1.4354   26.2946 C   0  0  0  0  0  0  0  0  0  0  0  0
    4.8942    0.2354   26.0443 C   0  0  0  0  0  0  0  0  0  0  0  0
    5.9848   -0.1343   26.6864 N   0  0  0  0  0  0  0  0  0  0  0  0
    6.2156   -1.4282   26.3086 C   0  0  0  0  0  0  0  0  0  0  0  0
    5.2770   -1.8268   25.3890 C   0  0  0  0  0  0  0  0  0  0  0  0
    4.5892   -0.6884   25.0752 N   0  0  0  0  0  0  0  0  0  0  0  0
    3.3537   -0.3253   30.3683 C   0  0  0  0  0  0  0  0  0  0  0  0
    3.2590   -1.4754   31.3416 C   0  0  0  0  0  0  0  0  0  0  0  0
    3.9913   -1.6539   30.0390 C   0  0  0  0  0  0  0  0  0  0  0  0
    0.9886    2.0847   29.6378 H   0  0  0  0  0  0  0  0  0  0  0  0
    2.5603    2.2464   30.4204 H   0  0  0  0  0  0  0  0  0  0  0  0
    1.2855    1.3422   31.2278 H   0  0  0  0  0  0  0  0  0  0  0  0
    0.0820    0.0104   29.1376 H   0  0  0  0  0  0  0  0  0  0  0  0
    0.6229   -0.9403   30.5088 H   0  0  0  0  0  0  0  0  0  0  0  0
    0.4872   -1.6777   27.6895 H   0  0  0  0  0  0  0  0  0  0  0  0
   -1.5685   -3.8720   28.4042 H   0  0  0  0  0  0  0  0  0  0  0  0
   -2.3019   -6.0409   26.4400 H   0  0  0  0  0  0  0  0  0  0  0  0
   -0.7048   -6.2908   24.1227 H   0  0  0  0  0  0  0  0  0  0  0  0
    2.5788   -4.8425   27.1357 H   0  0  0  0  0  0  0  0  0  0  0  0
    2.6650   -0.1440   27.4827 H   0  0  0  0  0  0  0  0  0  0  0  0
    4.5947    2.3321   25.9840 H   0  0  0  0  0  0  0  0  0  0  0  0
    3.1207    1.4102   25.7132 H   0  0  0  0  0  0  0  0  0  0  0  0
    7.0269   -2.0107   26.7259 H   0  0  0  0  0  0  0  0  0  0  0  0
    5.1414   -2.7631   24.8755 H   0  0  0  0  0  0  0  0  0  0  0  0
    3.9263   -0.5613   24.3149 H   0  0  0  0  0  0  0  0  0  0  0  0
    4.0633    0.4629   30.6208 H   0  0  0  0  0  0  0  0  0  0  0  0
    3.8539   -1.4184   32.2474 H   0  0  0  0  0  0  0  0  0  0  0  0
    2.3320   -2.0158   31.4757 H   0  0  0  0  0  0  0  0  0  0  0  0
    5.0752   -1.7033   30.0611 H   0  0  0  0  0  0  0  0  0  0  0  0
    3.5492   -2.2803   29.2774 H   0  0  0  0  0  0  0  0  0  0  0  0
  1  2  1  0
  2  3  1  0
  3  4  1  0
  4  5  1  0
  5  6  2  0
  5  7  1  0
  7  8  2  0
  8  9  1  0
  9 10  2  0
 10 11  1  0
 11 12  2  0
  2 13  1  0
 13 14  1  0
 14 15  2  0
 14 16  1  0
 16 17  1  0
 17 18  2  0
 18 19  1  0
 19 20  2  0
 20 21  1  0
  2 22  1  0
 22 23  1  0
 23 24  1  0
 12  7  1  0
 21 17  1  0
 24 22  1  0
  1 25  1  0
  1 26  1  0
  1 27  1  0
  3 28  1  0
  3 29  1  0
  4 30  1  0
  8 31  1  0
  9 32  1  0
 10 33  1  0
 12 34  1  0
 13 35  1  0
 16 36  1  0
 16 37  1  0
 19 38  1  0
 20 39  1  0
 21 40  1  0
 22 41  1  0
 23 42  1  0
 23 43  1  0
 24 44  1  0
 24 45  1  0
M  END
>  <Energy>  (474) 
276.15589127543217

>  <compound_id>  (474) 
11897

>  <target_id>  (474) 
1

>  <reference_id>  (474) 
59

>  <inspiration_ids>  (474) 
[80, 59]

>  <energy_score>  (474) 
178.2477596452593

>  <distance_score>  (474) 
9.244185220340972

>  <path>  (474) 
/opt/xchem-fragalysis-2/maxwin/BulkDock/SCRATCH/511022/C11897-P59/C11897-P59.minimised.mol

>  <scratch_subdir>  (474) 
/opt/xchem-fragalysis-2/maxwin/BulkDock/SCRATCH/511022/C11897-P59

>  <fragmenstein_runtime>  (474) 
23.41377830505371

>  <fragmenstein_outcome>  (474) 
too moved

>  <fragmenstein_mode>  (474) 
expansion

>  <fragmenstein_error>  (474) 


$$$$
C8991-P80
     RDKit          3D

 42 44  0  0  0  0  0  0  0  0999 V2000
   -0.8824   -2.7747   30.6707 C   0  0  0  0  0  0  0  0  0  0  0  0
    0.5829   -2.6154   31.1396 C   0  0  0  0  0  0  0  0  0  0  0  0
    0.8279   -1.1500   31.6174 C   0  0  0  0  0  0  0  0  0  0  0  0
    0.5560   -0.1577   30.6112 N   0  0  0  0  0  0  0  0  0  0  0  0
   -0.6511    0.5024   30.2537 C   0  0  0  0  0  0  0  0  0  0  0  0
   -1.7397    0.4638   30.7480 O   0  0  0  0  0  0  0  0  0  0  0  0
   -0.4074    1.3027   29.0418 C   0  0  0  0  0  0  0  0  0  0  0  0
   -1.3948    1.8138   28.2224 C   0  0  0  0  0  0  0  0  0  0  0  0
   -0.6959    2.6367   26.8955 S   0  0  0  0  0  0  0  0  0  0  0  0
    0.8612    2.2675   27.5075 C   0  0  0  0  0  0  0  0  0  0  0  0
    0.8974    1.5781   28.6235 N   0  0  0  0  0  0  0  0  0  0  0  0
    1.5202   -2.9885   30.0626 N   0  0  0  0  0  0  0  0  0  0  0  0
    1.6807   -2.4684   28.7196 C   0  0  0  0  0  0  0  0  0  0  0  0
    1.0403   -1.6557   28.1147 O   0  0  0  0  0  0  0  0  0  0  0  0
    2.8360   -3.2052   28.0047 C   0  0  0  0  0  0  0  0  0  0  0  0
    3.7455   -2.2504   27.3012 C   0  0  0  0  0  0  0  0  0  0  0  0
    4.8801   -1.7646   27.7739 N   0  0  0  0  0  0  0  0  0  0  0  0
    5.3194   -0.8741   26.8383 C   0  0  0  0  0  0  0  0  0  0  0  0
    4.5234   -0.9289   25.7254 C   0  0  0  0  0  0  0  0  0  0  0  0
    3.5275   -1.8125   26.0171 N   0  0  0  0  0  0  0  0  0  0  0  0
    0.8174   -3.6561   32.2400 C   0  0  0  0  0  0  0  0  0  0  0  0
    0.5194   -3.4174   33.7020 C   0  0  0  0  0  0  0  0  0  0  0  0
    1.9457   -3.5620   33.2408 C   0  0  0  0  0  0  0  0  0  0  0  0
   -1.1070   -2.1732   29.7853 H   0  0  0  0  0  0  0  0  0  0  0  0
   -1.5866   -2.5064   31.4659 H   0  0  0  0  0  0  0  0  0  0  0  0
   -1.0783   -3.8152   30.3943 H   0  0  0  0  0  0  0  0  0  0  0  0
    1.8699   -1.0052   31.9194 H   0  0  0  0  0  0  0  0  0  0  0  0
    0.1841   -0.9129   32.4700 H   0  0  0  0  0  0  0  0  0  0  0  0
    1.2691    0.0505   29.9080 H   0  0  0  0  0  0  0  0  0  0  0  0
   -2.4646    1.7452   28.3427 H   0  0  0  0  0  0  0  0  0  0  0  0
    1.7610    2.5865   26.9975 H   0  0  0  0  0  0  0  0  0  0  0  0
    2.1964   -3.7262   30.2146 H   0  0  0  0  0  0  0  0  0  0  0  0
    2.3957   -3.9193   27.3018 H   0  0  0  0  0  0  0  0  0  0  0  0
    3.4380   -3.7862   28.7114 H   0  0  0  0  0  0  0  0  0  0  0  0
    6.1979   -0.2682   27.0146 H   0  0  0  0  0  0  0  0  0  0  0  0
    4.5600   -0.4271   24.7767 H   0  0  0  0  0  0  0  0  0  0  0  0
    2.7380   -2.0585   25.4231 H   0  0  0  0  0  0  0  0  0  0  0  0
    0.5884   -4.6567   31.8756 H   0  0  0  0  0  0  0  0  0  0  0  0
    0.0780   -4.2352   34.2642 H   0  0  0  0  0  0  0  0  0  0  0  0
    0.1884   -2.4453   34.0449 H   0  0  0  0  0  0  0  0  0  0  0  0
    2.5788   -2.6836   33.2650 H   0  0  0  0  0  0  0  0  0  0  0  0
    2.4688   -4.4763   33.5020 H   0  0  0  0  0  0  0  0  0  0  0  0
  1  2  1  0
  2  3  1  0
  3  4  1  0
  4  5  1  0
  5  6  2  0
  5  7  1  0
  7  8  2  0
  8  9  1  0
  9 10  1  0
 10 11  2  0
  2 12  1  0
 12 13  1  0
 13 14  2  0
 13 15  1  0
 15 16  1  0
 16 17  2  0
 17 18  1  0
 18 19  2  0
 19 20  1  0
  2 21  1  0
 21 22  1  0
 22 23  1  0
 11  7  1  0
 20 16  1  0
 23 21  1  0
  1 24  1  0
  1 25  1  0
  1 26  1  0
  3 27  1  0
  3 28  1  0
  4 29  1  0
  8 30  1  0
 10 31  1  0
 12 32  1  0
 15 33  1  0
 15 34  1  0
 18 35  1  0
 19 36  1  0
 20 37  1  0
 21 38  1  0
 22 39  1  0
 22 40  1  0
 23 41  1  0
 23 42  1  0
M  END
>  <Energy>  (475) 
53.883332832884271

>  <compound_id>  (475) 
8991

>  <target_id>  (475) 
1

>  <reference_id>  (475) 
80

>  <inspiration_ids>  (475) 
[80, 59]

>  <energy_score>  (475) 
-92.64462084805473

>  <distance_score>  (475) 
9.007323030510397

>  <path>  (475) 
/opt/xchem-fragalysis-2/maxwin/BulkDock/SCRATCH/511022/C8991-P80/C8991-P80.minimised.mol

>  <scratch_subdir>  (475) 
/opt/xchem-fragalysis-2/maxwin/BulkDock/SCRATCH/511022/C8991-P80

>  <fragmenstein_runtime>  (475) 
22.63325572013855

>  <fragmenstein_outcome>  (475) 
too moved

>  <fragmenstein_mode>  (475) 
expansion

>  <fragmenstein_error>  (475) 


$$$$
C8991-P59
     RDKit          3D

 42 44  0  0  0  0  0  0  0  0999 V2000
    4.8985    1.2630   28.8629 C   0  0  0  0  0  0  0  0  0  0  0  0
    5.0020    1.0874   27.3245 C   0  0  0  0  0  0  0  0  0  0  0  0
    4.1372   -0.1520   26.9157 C   0  0  0  0  0  0  0  0  0  0  0  0
    2.8425   -0.2514   27.5509 N   0  0  0  0  0  0  0  0  0  0  0  0
    2.1194   -1.3814   28.0258 C   0  0  0  0  0  0  0  0  0  0  0  0
    2.4281   -2.5342   28.0944 O   0  0  0  0  0  0  0  0  0  0  0  0
    0.7755   -0.9397   28.4521 C   0  0  0  0  0  0  0  0  0  0  0  0
   -0.1979   -1.7698   28.9778 C   0  0  0  0  0  0  0  0  0  0  0  0
   -1.6201   -0.8770   29.3074 S   0  0  0  0  0  0  0  0  0  0  0  0
   -0.8654    0.5305   28.6901 C   0  0  0  0  0  0  0  0  0  0  0  0
    0.3891    0.4019   28.3206 N   0  0  0  0  0  0  0  0  0  0  0  0
    6.4087    0.7963   26.9317 N   0  0  0  0  0  0  0  0  0  0  0  0
    7.5506    1.6783   26.7499 C   0  0  0  0  0  0  0  0  0  0  0  0
    7.6299    2.8763   26.7933 O   0  0  0  0  0  0  0  0  0  0  0  0
    8.8264    0.8468   26.4723 C   0  0  0  0  0  0  0  0  0  0  0  0
    9.7147    1.4021   25.3889 C   0  0  0  0  0  0  0  0  0  0  0  0
   10.5371    0.6945   24.6390 N   0  0  0  0  0  0  0  0  0  0  0  0
   11.1900    1.5849   23.8246 C   0  0  0  0  0  0  0  0  0  0  0  0
   10.7428    2.8595   24.0577 C   0  0  0  0  0  0  0  0  0  0  0  0
    9.8179    2.7345   25.0607 N   0  0  0  0  0  0  0  0  0  0  0  0
    4.5868    2.3989   26.6661 C   0  0  0  0  0  0  0  0  0  0  0  0
    4.3320    2.5314   25.1825 C   0  0  0  0  0  0  0  0  0  0  0  0
    3.2017    2.7241   26.1527 C   0  0  0  0  0  0  0  0  0  0  0  0
    5.1659    0.3363   29.3831 H   0  0  0  0  0  0  0  0  0  0  0  0
    5.5905    2.0392   29.2111 H   0  0  0  0  0  0  0  0  0  0  0  0
    3.8924    1.5647   29.1736 H   0  0  0  0  0  0  0  0  0  0  0  0
    3.9730   -0.1871   25.8342 H   0  0  0  0  0  0  0  0  0  0  0  0
    4.6709   -1.0767   27.1699 H   0  0  0  0  0  0  0  0  0  0  0  0
    2.2303    0.5635   27.5666 H   0  0  0  0  0  0  0  0  0  0  0  0
   -0.1384   -2.8326   29.1629 H   0  0  0  0  0  0  0  0  0  0  0  0
   -1.3944    1.4720   28.6153 H   0  0  0  0  0  0  0  0  0  0  0  0
    6.7267   -0.1668   26.9079 H   0  0  0  0  0  0  0  0  0  0  0  0
    8.5656   -0.1792   26.1901 H   0  0  0  0  0  0  0  0  0  0  0  0
    9.3918    0.7965   27.4098 H   0  0  0  0  0  0  0  0  0  0  0  0
   11.9450    1.2571   23.1230 H   0  0  0  0  0  0  0  0  0  0  0  0
   11.0025    3.8165   23.6300 H   0  0  0  0  0  0  0  0  0  0  0  0
    9.2815    3.4756   25.4995 H   0  0  0  0  0  0  0  0  0  0  0  0
    5.1152    3.2337   27.1255 H   0  0  0  0  0  0  0  0  0  0  0  0
    4.3284    1.6472   24.5573 H   0  0  0  0  0  0  0  0  0  0  0  0
    4.7019    3.4188   24.6814 H   0  0  0  0  0  0  0  0  0  0  0  0
    2.4108    1.9921   26.1286 H   0  0  0  0  0  0  0  0  0  0  0  0
    2.8372    3.7356   26.3059 H   0  0  0  0  0  0  0  0  0  0  0  0
  1  2  1  0
  2  3  1  0
  3  4  1  0
  4  5  1  0
  5  6  2  0
  5  7  1  0
  7  8  2  0
  8  9  1  0
  9 10  1  0
 10 11  2  0
  2 12  1  0
 12 13  1  0
 13 14  2  0
 13 15  1  0
 15 16  1  0
 16 17  2  0
 17 18  1  0
 18 19  2  0
 19 20  1  0
  2 21  1  0
 21 22  1  0
 22 23  1  0
 11  7  1  0
 20 16  1  0
 23 21  1  0
  1 24  1  0
  1 25  1  0
  1 26  1  0
  3 27  1  0
  3 28  1  0
  4 29  1  0
  8 30  1  0
 10 31  1  0
 12 32  1  0
 15 33  1  0
 15 34  1  0
 18 35  1  0
 19 36  1  0
 20 37  1  0
 21 38  1  0
 22 39  1  0
 22 40  1  0
 23 41  1  0
 23 42  1  0
M  END
>  <Energy>  (476) 
58.667838634107419

>  <compound_id>  (476) 
8991

>  <target_id>  (476) 
1

>  <reference_id>  (476) 
59

>  <inspiration_ids>  (476) 
[80, 59]

>  <energy_score>  (476) 
-87.86011504682898

>  <distance_score>  (476) 
9.535841285549413

>  <path>  (476) 
/opt/xchem-fragalysis-2/maxwin/BulkDock/SCRATCH/511022/C8991-P59/C8991-P59.minimised.mol

>  <scratch_subdir>  (476) 
/opt/xchem-fragalysis-2/maxwin/BulkDock/SCRATCH/511022/C8991-P59

>  <fragmenstein_runtime>  (476) 
30.027474403381348

>  <fragmenstein_outcome>  (476) 
too moved

>  <fragmenstein_mode>  (476) 
expansion

>  <fragmenstein_error>  (476) 


$$$$
C9626-P80
     RDKit          3D

 45 47  0  0  0  0  0  0  0  0999 V2000
    5.5724   -0.4366   26.9893 C   0  0  0  0  0  0  0  0  0  0  0  0
    4.3032   -0.2167   26.1247 C   0  0  0  0  0  0  0  0  0  0  0  0
    3.8166    1.1805   26.6811 C   0  0  0  0  0  0  0  0  0  0  0  0
    2.4291    1.5205   26.6558 N   0  0  0  0  0  0  0  0  0  0  0  0
    1.7790    2.7708   26.4819 C   0  0  0  0  0  0  0  0  0  0  0  0
    2.2201    3.8522   26.2320 O   0  0  0  0  0  0  0  0  0  0  0  0
    0.3059    2.6307   26.7726 C   0  0  0  0  0  0  0  0  0  0  0  0
   -0.5377    3.7164   26.6187 C   0  0  0  0  0  0  0  0  0  0  0  0
   -1.8830    3.5329   26.8917 C   0  0  0  0  0  0  0  0  0  0  0  0
   -2.3304    2.2843   27.3027 C   0  0  0  0  0  0  0  0  0  0  0  0
   -1.4169    1.2598   27.4702 C   0  0  0  0  0  0  0  0  0  0  0  0
   -0.1042    1.3964   27.2078 N   0  0  0  0  0  0  0  0  0  0  0  0
    4.6283   -0.3649   24.6001 N   0  0  0  0  0  0  0  0  0  0  0  0
    5.2005   -1.4959   23.8242 C   0  0  0  0  0  0  0  0  0  0  0  0
    5.6035   -2.5050   24.2520 O   0  0  0  0  0  0  0  0  0  0  0  0
    5.5064   -1.4280   21.8432 C   0  0  0  0  0  0  0  0  0  0  0  0
    6.9216   -0.5222   20.6937 C   0  0  0  0  0  0  0  0  0  0  0  0
    7.5000    0.7359   20.5321 N   0  0  0  0  0  0  0  0  0  0  0  0
    7.2825    1.1355   19.0101 C   0  0  0  0  0  0  0  0  0  0  0  0
    7.5338   -0.0190   18.3810 C   0  0  0  0  0  0  0  0  0  0  0  0
    7.6009   -0.8523   19.5136 N   0  0  0  0  0  0  0  0  0  0  0  0
    3.2969   -1.3121   26.4478 C   0  0  0  0  0  0  0  0  0  0  0  0
    3.5209   -2.4899   27.3809 C   0  0  0  0  0  0  0  0  0  0  0  0
    2.5392   -1.4265   27.7590 C   0  0  0  0  0  0  0  0  0  0  0  0
    6.1199   -1.3384   26.7230 H   0  0  0  0  0  0  0  0  0  0  0  0
    6.2715    0.4014   26.8808 H   0  0  0  0  0  0  0  0  0  0  0  0
    5.3474   -0.5069   28.0605 H   0  0  0  0  0  0  0  0  0  0  0  0
    4.3978    2.0400   26.3503 H   0  0  0  0  0  0  0  0  0  0  0  0
    4.0013    1.1834   27.7659 H   0  0  0  0  0  0  0  0  0  0  0  0
    1.7394    0.8257   26.9442 H   0  0  0  0  0  0  0  0  0  0  0  0
   -0.1588    4.6815   26.2983 H   0  0  0  0  0  0  0  0  0  0  0  0
   -2.5821    4.3613   26.7978 H   0  0  0  0  0  0  0  0  0  0  0  0
   -3.3832    2.1484   27.4996 H   0  0  0  0  0  0  0  0  0  0  0  0
   -1.7269    0.2785   27.8175 H   0  0  0  0  0  0  0  0  0  0  0  0
    4.2873    0.3389   23.9434 H   0  0  0  0  0  0  0  0  0  0  0  0
    4.7898   -0.5926   21.8086 H   0  0  0  0  0  0  0  0  0  0  0  0
    5.5155   -2.4528   21.4439 H   0  0  0  0  0  0  0  0  0  0  0  0
    7.3685    2.1406   18.6149 H   0  0  0  0  0  0  0  0  0  0  0  0
    7.8860   -0.1622   17.3627 H   0  0  0  0  0  0  0  0  0  0  0  0
    8.5357   -1.1249   19.6929 H   0  0  0  0  0  0  0  0  0  0  0  0
    2.7703   -1.5572   25.5438 H   0  0  0  0  0  0  0  0  0  0  0  0
    4.4112   -2.5714   27.9874 H   0  0  0  0  0  0  0  0  0  0  0  0
    3.1408   -3.4497   27.0451 H   0  0  0  0  0  0  0  0  0  0  0  0
    1.4836   -1.6695   27.7024 H   0  0  0  0  0  0  0  0  0  0  0  0
    2.8007   -0.7845   28.5910 H   0  0  0  0  0  0  0  0  0  0  0  0
  1  2  1  0
  2  3  1  0
  3  4  1  0
  4  5  1  0
  5  6  2  0
  5  7  1  0
  7  8  2  0
  8  9  1  0
  9 10  2  0
 10 11  1  0
 11 12  2  0
  2 13  1  0
 13 14  1  0
 14 15  2  0
 14 16  1  0
 16 17  1  0
 17 18  2  0
 18 19  1  0
 19 20  2  0
 20 21  1  0
  2 22  1  0
 22 23  1  0
 23 24  1  0
 12  7  1  0
 21 17  1  0
 24 22  1  0
  1 25  1  0
  1 26  1  0
  1 27  1  0
  3 28  1  0
  3 29  1  0
  4 30  1  0
  8 31  1  0
  9 32  1  0
 10 33  1  0
 11 34  1  0
 13 35  1  0
 16 36  1  0
 16 37  1  0
 19 38  1  0
 20 39  1  0
 21 40  1  0
 22 41  1  0
 23 42  1  0
 23 43  1  0
 24 44  1  0
 24 45  1  0
M  END
>  <Energy>  (477) 
353.28579646407098

>  <compound_id>  (477) 
9626

>  <target_id>  (477) 
1

>  <reference_id>  (477) 
80

>  <inspiration_ids>  (477) 
[80, 59]

>  <energy_score>  (477) 
228.71307465646424

>  <distance_score>  (477) 
9.019181542140755

>  <path>  (477) 
/opt/xchem-fragalysis-2/maxwin/BulkDock/SCRATCH/511022/C9626-P80/C9626-P80.minimised.mol

>  <scratch_subdir>  (477) 
/opt/xchem-fragalysis-2/maxwin/BulkDock/SCRATCH/511022/C9626-P80

>  <fragmenstein_runtime>  (477) 
15.490726947784424

>  <fragmenstein_outcome>  (477) 
too moved

>  <fragmenstein_mode>  (477) 
expansion

>  <fragmenstein_error>  (477) 


$$$$
C9626-P59
     RDKit          3D

 45 47  0  0  0  0  0  0  0  0999 V2000
    3.8609   -2.9008   31.9341 C   0  0  0  0  0  0  0  0  0  0  0  0
    3.3436   -1.8206   30.9600 C   0  0  0  0  0  0  0  0  0  0  0  0
    2.0991   -2.4677   30.2915 C   0  0  0  0  0  0  0  0  0  0  0  0
    1.3124   -1.6222   29.4430 N   0  0  0  0  0  0  0  0  0  0  0  0
   -0.0682   -1.6703   29.0973 C   0  0  0  0  0  0  0  0  0  0  0  0
   -0.9124   -2.4743   29.3624 O   0  0  0  0  0  0  0  0  0  0  0  0
   -0.4612   -0.4255   28.3428 C   0  0  0  0  0  0  0  0  0  0  0  0
   -1.7270   -0.3008   27.7949 C   0  0  0  0  0  0  0  0  0  0  0  0
   -2.0632    0.9198   27.2189 C   0  0  0  0  0  0  0  0  0  0  0  0
   -1.1384    1.9590   27.2138 C   0  0  0  0  0  0  0  0  0  0  0  0
    0.1067    1.7383   27.7747 C   0  0  0  0  0  0  0  0  0  0  0  0
    0.4745    0.5696   28.3351 N   0  0  0  0  0  0  0  0  0  0  0  0
    4.3813   -1.4876   29.9749 N   0  0  0  0  0  0  0  0  0  0  0  0
    5.0831   -2.3139   29.0235 C   0  0  0  0  0  0  0  0  0  0  0  0
    4.9430   -3.4713   28.7383 O   0  0  0  0  0  0  0  0  0  0  0  0
    6.2092   -1.5221   28.3255 C   0  0  0  0  0  0  0  0  0  0  0  0
    5.7647   -1.1000   26.9689 C   0  0  0  0  0  0  0  0  0  0  0  0
    5.5247    0.1349   26.5705 N   0  0  0  0  0  0  0  0  0  0  0  0
    4.9161    0.0131   25.3539 C   0  0  0  0  0  0  0  0  0  0  0  0
    4.8443   -1.3071   24.9881 C   0  0  0  0  0  0  0  0  0  0  0  0
    5.4977   -1.9973   25.9638 N   0  0  0  0  0  0  0  0  0  0  0  0
    3.1140   -0.5668   31.8053 C   0  0  0  0  0  0  0  0  0  0  0  0
    2.5936    0.7410   31.2573 C   0  0  0  0  0  0  0  0  0  0  0  0
    1.7530   -0.0565   32.2178 C   0  0  0  0  0  0  0  0  0  0  0  0
    4.0587   -3.8481   31.4192 H   0  0  0  0  0  0  0  0  0  0  0  0
    4.8035   -2.5940   32.4038 H   0  0  0  0  0  0  0  0  0  0  0  0
    3.1412   -3.0950   32.7381 H   0  0  0  0  0  0  0  0  0  0  0  0
    2.3908   -3.3274   29.6770 H   0  0  0  0  0  0  0  0  0  0  0  0
    1.4141   -2.8542   31.0568 H   0  0  0  0  0  0  0  0  0  0  0  0
    1.7452   -0.8281   28.9698 H   0  0  0  0  0  0  0  0  0  0  0  0
   -2.4286   -1.1281   27.8229 H   0  0  0  0  0  0  0  0  0  0  0  0
   -3.0481    1.0766   26.7902 H   0  0  0  0  0  0  0  0  0  0  0  0
   -1.3900    2.9262   26.7903 H   0  0  0  0  0  0  0  0  0  0  0  0
    0.8576    2.5237   27.7913 H   0  0  0  0  0  0  0  0  0  0  0  0
    4.7119   -0.5315   29.8902 H   0  0  0  0  0  0  0  0  0  0  0  0
    6.5061   -0.6527   28.9212 H   0  0  0  0  0  0  0  0  0  0  0  0
    7.0906   -2.1705   28.2584 H   0  0  0  0  0  0  0  0  0  0  0  0
    4.5607    0.8736   24.8019 H   0  0  0  0  0  0  0  0  0  0  0  0
    4.4595   -1.7733   24.0978 H   0  0  0  0  0  0  0  0  0  0  0  0
    5.6689   -2.9963   25.9929 H   0  0  0  0  0  0  0  0  0  0  0  0
    3.9128   -0.4512   32.5372 H   0  0  0  0  0  0  0  0  0  0  0  0
    2.2804    0.8085   30.2258 H   0  0  0  0  0  0  0  0  0  0  0  0
    3.0407    1.6594   31.6241 H   0  0  0  0  0  0  0  0  0  0  0  0
    0.8525   -0.5193   31.8345 H   0  0  0  0  0  0  0  0  0  0  0  0
    1.6419    0.3235   33.2280 H   0  0  0  0  0  0  0  0  0  0  0  0
  1  2  1  0
  2  3  1  0
  3  4  1  0
  4  5  1  0
  5  6  2  0
  5  7  1  0
  7  8  2  0
  8  9  1  0
  9 10  2  0
 10 11  1  0
 11 12  2  0
  2 13  1  0
 13 14  1  0
 14 15  2  0
 14 16  1  0
 16 17  1  0
 17 18  2  0
 18 19  1  0
 19 20  2  0
 20 21  1  0
  2 22  1  0
 22 23  1  0
 23 24  1  0
 12  7  1  0
 21 17  1  0
 24 22  1  0
  1 25  1  0
  1 26  1  0
  1 27  1  0
  3 28  1  0
  3 29  1  0
  4 30  1  0
  8 31  1  0
  9 32  1  0
 10 33  1  0
 11 34  1  0
 13 35  1  0
 16 36  1  0
 16 37  1  0
 19 38  1  0
 20 39  1  0
 21 40  1  0
 22 41  1  0
 23 42  1  0
 23 43  1  0
 24 44  1  0
 24 45  1  0
M  END
>  <Energy>  (478) 
85.488975241810451

>  <compound_id>  (478) 
9626

>  <target_id>  (478) 
1

>  <reference_id>  (478) 
59

>  <inspiration_ids>  (478) 
[80, 59]

>  <energy_score>  (478) 
-39.0837465658023

>  <distance_score>  (478) 
8.961126541764425

>  <path>  (478) 
/opt/xchem-fragalysis-2/maxwin/BulkDock/SCRATCH/511022/C9626-P59/C9626-P59.minimised.mol

>  <scratch_subdir>  (478) 
/opt/xchem-fragalysis-2/maxwin/BulkDock/SCRATCH/511022/C9626-P59

>  <fragmenstein_runtime>  (478) 
22.16972780227661

>  <fragmenstein_outcome>  (478) 
too moved

>  <fragmenstein_mode>  (478) 
expansion

>  <fragmenstein_error>  (478) 


$$$$
C11945-P80
     RDKit          3D

 45 47  0  0  0  0  0  0  0  0999 V2000
    5.0076    0.3260   27.3432 C   0  0  0  0  0  0  0  0  0  0  0  0
    5.6239    1.5585   28.0541 C   0  0  0  0  0  0  0  0  0  0  0  0
    5.5792    1.2607   29.5919 C   0  0  0  0  0  0  0  0  0  0  0  0
    4.2198    0.9541   30.0377 N   0  0  0  0  0  0  0  0  0  0  0  0
    3.5643   -0.2976   30.2565 C   0  0  0  0  0  0  0  0  0  0  0  0
    3.9816   -1.4164   30.2085 O   0  0  0  0  0  0  0  0  0  0  0  0
    2.0882   -0.1581   30.4860 C   0  0  0  0  0  0  0  0  0  0  0  0
    1.4558   -1.0006   31.3977 C   0  0  0  0  0  0  0  0  0  0  0  0
    0.0811   -0.9036   31.5286 C   0  0  0  0  0  0  0  0  0  0  0  0
   -0.6870   -0.0474   30.8177 N   0  0  0  0  0  0  0  0  0  0  0  0
   -0.0547    0.7302   29.9155 C   0  0  0  0  0  0  0  0  0  0  0  0
    1.3140    0.7115   29.7112 C   0  0  0  0  0  0  0  0  0  0  0  0
    6.9912    1.8677   27.5577 N   0  0  0  0  0  0  0  0  0  0  0  0
    8.1507    1.0125   27.3586 C   0  0  0  0  0  0  0  0  0  0  0  0
    8.2745   -0.1756   27.4701 O   0  0  0  0  0  0  0  0  0  0  0  0
    9.3937    1.8811   26.9933 C   0  0  0  0  0  0  0  0  0  0  0  0
   10.1186    1.4717   25.7342 C   0  0  0  0  0  0  0  0  0  0  0  0
   10.2269    2.1779   24.6172 N   0  0  0  0  0  0  0  0  0  0  0  0
   11.0699    1.4672   23.7943 C   0  0  0  0  0  0  0  0  0  0  0  0
   11.4865    0.3187   24.4168 C   0  0  0  0  0  0  0  0  0  0  0  0
   10.8455    0.3064   25.6248 N   0  0  0  0  0  0  0  0  0  0  0  0
    4.7716    2.7954   27.6675 C   0  0  0  0  0  0  0  0  0  0  0  0
    4.0957    3.7545   28.6352 C   0  0  0  0  0  0  0  0  0  0  0  0
    5.2823    4.2168   27.8539 C   0  0  0  0  0  0  0  0  0  0  0  0
    5.1067    0.4057   26.2604 H   0  0  0  0  0  0  0  0  0  0  0  0
    3.9363    0.2206   27.5424 H   0  0  0  0  0  0  0  0  0  0  0  0
    5.5128   -0.5992   27.6409 H   0  0  0  0  0  0  0  0  0  0  0  0
    5.9367    2.1176   30.1715 H   0  0  0  0  0  0  0  0  0  0  0  0
    6.2152    0.4003   29.8286 H   0  0  0  0  0  0  0  0  0  0  0  0
    3.5359    1.6960   30.0823 H   0  0  0  0  0  0  0  0  0  0  0  0
    2.0203   -1.7223   31.9788 H   0  0  0  0  0  0  0  0  0  0  0  0
   -0.4567   -1.5371   32.2292 H   0  0  0  0  0  0  0  0  0  0  0  0
   -0.6994    1.3802   29.3299 H   0  0  0  0  0  0  0  0  0  0  0  0
    1.7448    1.3253   28.9283 H   0  0  0  0  0  0  0  0  0  0  0  0
    7.2716    2.8332   27.4550 H   0  0  0  0  0  0  0  0  0  0  0  0
    9.1217    2.9372   26.8927 H   0  0  0  0  0  0  0  0  0  0  0  0
   10.0830    1.8203   27.8447 H   0  0  0  0  0  0  0  0  0  0  0  0
   11.3417    1.8263   22.8106 H   0  0  0  0  0  0  0  0  0  0  0  0
   12.1429   -0.4822   24.1063 H   0  0  0  0  0  0  0  0  0  0  0  0
   10.8969   -0.4219   26.3255 H   0  0  0  0  0  0  0  0  0  0  0  0
    4.2437    2.6214   26.7319 H   0  0  0  0  0  0  0  0  0  0  0  0
    4.2398    3.6957   29.7065 H   0  0  0  0  0  0  0  0  0  0  0  0
    3.1248    4.1518   28.3544 H   0  0  0  0  0  0  0  0  0  0  0  0
    6.1827    4.4132   28.4246 H   0  0  0  0  0  0  0  0  0  0  0  0
    5.1166    4.9207   27.0444 H   0  0  0  0  0  0  0  0  0  0  0  0
  1  2  1  0
  2  3  1  0
  3  4  1  0
  4  5  1  0
  5  6  2  0
  5  7  1  0
  7  8  2  0
  8  9  1  0
  9 10  2  0
 10 11  1  0
 11 12  2  0
  2 13  1  0
 13 14  1  0
 14 15  2  0
 14 16  1  0
 16 17  1  0
 17 18  2  0
 18 19  1  0
 19 20  2  0
 20 21  1  0
  2 22  1  0
 22 23  1  0
 23 24  1  0
 12  7  1  0
 21 17  1  0
 24 22  1  0
  1 25  1  0
  1 26  1  0
  1 27  1  0
  3 28  1  0
  3 29  1  0
  4 30  1  0
  8 31  1  0
  9 32  1  0
 11 33  1  0
 12 34  1  0
 13 35  1  0
 16 36  1  0
 16 37  1  0
 19 38  1  0
 20 39  1  0
 21 40  1  0
 22 41  1  0
 23 42  1  0
 23 43  1  0
 24 44  1  0
 24 45  1  0
M  END
>  <Energy>  (479) 
52.999672095748949

>  <compound_id>  (479) 
11945

>  <target_id>  (479) 
1

>  <reference_id>  (479) 
80

>  <inspiration_ids>  (479) 
[80, 59]

>  <energy_score>  (479) 
-40.81500927942113

>  <distance_score>  (479) 
9.331779669249064

>  <path>  (479) 
/opt/xchem-fragalysis-2/maxwin/BulkDock/SCRATCH/511022/C11945-P80/C11945-P80.minimised.mol

>  <scratch_subdir>  (479) 
/opt/xchem-fragalysis-2/maxwin/BulkDock/SCRATCH/511022/C11945-P80

>  <fragmenstein_runtime>  (479) 
29.843406200408936

>  <fragmenstein_outcome>  (479) 
too moved

>  <fragmenstein_mode>  (479) 
expansion

>  <fragmenstein_error>  (479) 


$$$$
C11945-P59
     RDKit          3D

 45 47  0  0  0  0  0  0  0  0999 V2000
    2.9572   -4.6687   27.3684 C   0  0  0  0  0  0  0  0  0  0  0  0
    4.6211   -4.6933   27.3146 C   0  0  0  0  0  0  0  0  0  0  0  0
    5.0379   -3.1840   27.6517 C   0  0  0  0  0  0  0  0  0  0  0  0
    3.9525   -2.4515   28.3627 N   0  0  0  0  0  0  0  0  0  0  0  0
    3.0677   -1.2694   27.8998 C   0  0  0  0  0  0  0  0  0  0  0  0
    3.1038   -0.6366   26.9205 O   0  0  0  0  0  0  0  0  0  0  0  0
    1.9231   -0.9717   28.8352 C   0  0  0  0  0  0  0  0  0  0  0  0
    0.6356   -0.9342   28.2763 C   0  0  0  0  0  0  0  0  0  0  0  0
   -0.4479   -0.6145   29.0671 C   0  0  0  0  0  0  0  0  0  0  0  0
   -0.3313   -0.3270   30.3726 N   0  0  0  0  0  0  0  0  0  0  0  0
    0.9155   -0.3516   30.8967 C   0  0  0  0  0  0  0  0  0  0  0  0
    2.0629   -0.6770   30.1845 C   0  0  0  0  0  0  0  0  0  0  0  0
    5.2547   -5.2188   25.9634 N   0  0  0  0  0  0  0  0  0  0  0  0
    6.8074   -5.4844   25.5625 C   0  0  0  0  0  0  0  0  0  0  0  0
    7.8058   -5.2668   26.1710 O   0  0  0  0  0  0  0  0  0  0  0  0
    6.9261   -6.2710   24.1305 C   0  0  0  0  0  0  0  0  0  0  0  0
    8.1477   -6.0221   23.0667 C   0  0  0  0  0  0  0  0  0  0  0  0
    8.0729   -5.8901   21.7298 N   0  0  0  0  0  0  0  0  0  0  0  0
    9.3626   -5.8138   21.2676 C   0  0  0  0  0  0  0  0  0  0  0  0
   10.2688   -5.8423   22.2877 C   0  0  0  0  0  0  0  0  0  0  0  0
    9.4997   -5.9866   23.4188 N   0  0  0  0  0  0  0  0  0  0  0  0
    5.0082   -5.6087   28.4865 C   0  0  0  0  0  0  0  0  0  0  0  0
    4.5738   -7.0613   28.4891 C   0  0  0  0  0  0  0  0  0  0  0  0
    6.0329   -6.7228   28.4797 C   0  0  0  0  0  0  0  0  0  0  0  0
    2.5757   -4.5647   28.3883 H   0  0  0  0  0  0  0  0  0  0  0  0
    2.6099   -3.8626   26.7317 H   0  0  0  0  0  0  0  0  0  0  0  0
    2.5951   -5.6134   26.9539 H   0  0  0  0  0  0  0  0  0  0  0  0
    5.9390   -3.1442   28.2708 H   0  0  0  0  0  0  0  0  0  0  0  0
    5.2191   -2.6409   26.7183 H   0  0  0  0  0  0  0  0  0  0  0  0
    3.6974   -2.7157   29.3066 H   0  0  0  0  0  0  0  0  0  0  0  0
    0.4822   -1.1180   27.2228 H   0  0  0  0  0  0  0  0  0  0  0  0
   -1.4520   -0.5709   28.6551 H   0  0  0  0  0  0  0  0  0  0  0  0
    0.9741   -0.0897   31.9503 H   0  0  0  0  0  0  0  0  0  0  0  0
    3.0357   -0.6518   30.6609 H   0  0  0  0  0  0  0  0  0  0  0  0
    4.6481   -5.5978   25.2470 H   0  0  0  0  0  0  0  0  0  0  0  0
    7.0100   -7.3324   24.4020 H   0  0  0  0  0  0  0  0  0  0  0  0
    5.9884   -6.1691   23.5993 H   0  0  0  0  0  0  0  0  0  0  0  0
    9.5931   -5.7366   20.2332 H   0  0  0  0  0  0  0  0  0  0  0  0
   11.3471   -5.7807   22.3215 H   0  0  0  0  0  0  0  0  0  0  0  0
    9.8314   -6.0247   24.3748 H   0  0  0  0  0  0  0  0  0  0  0  0
    4.8882   -5.0859   29.4332 H   0  0  0  0  0  0  0  0  0  0  0  0
    4.1605   -7.4920   27.5842 H   0  0  0  0  0  0  0  0  0  0  0  0
    4.1533   -7.4653   29.4029 H   0  0  0  0  0  0  0  0  0  0  0  0
    6.5872   -6.9872   27.5924 H   0  0  0  0  0  0  0  0  0  0  0  0
    6.6018   -6.8820   29.3903 H   0  0  0  0  0  0  0  0  0  0  0  0
  1  2  1  0
  2  3  1  0
  3  4  1  0
  4  5  1  0
  5  6  2  0
  5  7  1  0
  7  8  2  0
  8  9  1  0
  9 10  2  0
 10 11  1  0
 11 12  2  0
  2 13  1  0
 13 14  1  0
 14 15  2  0
 14 16  1  0
 16 17  1  0
 17 18  2  0
 18 19  1  0
 19 20  2  0
 20 21  1  0
  2 22  1  0
 22 23  1  0
 23 24  1  0
 12  7  1  0
 21 17  1  0
 24 22  1  0
  1 25  1  0
  1 26  1  0
  1 27  1  0
  3 28  1  0
  3 29  1  0
  4 30  1  0
  8 31  1  0
  9 32  1  0
 11 33  1  0
 12 34  1  0
 13 35  1  0
 16 36  1  0
 16 37  1  0
 19 38  1  0
 20 39  1  0
 21 40  1  0
 22 41  1  0
 23 42  1  0
 23 43  1  0
 24 44  1  0
 24 45  1  0
M  END
>  <Energy>  (480) 
111.22333733619546

>  <compound_id>  (480) 
11945

>  <target_id>  (480) 
1

>  <reference_id>  (480) 
59

>  <inspiration_ids>  (480) 
[80, 59]

>  <energy_score>  (480) 
33.91115342802527

>  <distance_score>  (480) 
9.003386514298755

>  <path>  (480) 
/opt/xchem-fragalysis-2/maxwin/BulkDock/SCRATCH/511022/C11945-P59/C11945-P59.minimised.mol

>  <scratch_subdir>  (480) 
/opt/xchem-fragalysis-2/maxwin/BulkDock/SCRATCH/511022/C11945-P59

>  <fragmenstein_runtime>  (480) 
14.380281209945679

>  <fragmenstein_outcome>  (480) 
too moved

>  <fragmenstein_mode>  (480) 
expansion

>  <fragmenstein_error>  (480) 


$$$$
C11942-P80
     RDKit          3D

 38 39  0  0  0  0  0  0  0  0999 V2000
    5.5286    0.2597   29.2373 C   0  0  0  0  0  0  0  0  0  0  0  0
    5.9839    0.3323   27.6939 C   0  0  0  0  0  0  0  0  0  0  0  0
    4.9091   -0.5301   26.9258 C   0  0  0  0  0  0  0  0  0  0  0  0
    3.5423   -0.4200   27.4417 N   0  0  0  0  0  0  0  0  0  0  0  0
    2.7486   -1.3495   28.3907 C   0  0  0  0  0  0  0  0  0  0  0  0
    3.0856   -2.3057   28.9696 O   0  0  0  0  0  0  0  0  0  0  0  0
    1.3591   -0.8585   28.6301 C   0  0  0  0  0  0  0  0  0  0  0  0
    0.2880   -1.7323   28.4522 C   0  0  0  0  0  0  0  0  0  0  0  0
   -0.9855   -1.2558   28.6901 C   0  0  0  0  0  0  0  0  0  0  0  0
   -1.2471   -0.0022   29.1149 N   0  0  0  0  0  0  0  0  0  0  0  0
   -0.1872    0.8019   29.3426 C   0  0  0  0  0  0  0  0  0  0  0  0
    1.1238    0.4239   29.1230 C   0  0  0  0  0  0  0  0  0  0  0  0
    7.4390   -0.0482   27.1818 N   0  0  0  0  0  0  0  0  0  0  0  0
    8.6603    0.9002   26.6855 C   0  0  0  0  0  0  0  0  0  0  0  0
    8.7557    2.0835   26.6734 O   0  0  0  0  0  0  0  0  0  0  0  0
    9.9071    0.0082   25.9926 C   0  0  0  0  0  0  0  0  0  0  0  0
   10.6829    0.5129   24.5516 C   0  0  0  0  0  0  0  0  0  0  0  0
   10.2746    1.2469   23.5073 N   0  0  0  0  0  0  0  0  0  0  0  0
   11.3740    1.4387   22.6879 C   0  0  0  0  0  0  0  0  0  0  0  0
   12.4325    0.6928   23.1186 C   0  0  0  0  0  0  0  0  0  0  0  0
   11.9528    0.0264   24.2205 N   0  0  0  0  0  0  0  0  0  0  0  0
    5.4879   -0.7803   29.5742 H   0  0  0  0  0  0  0  0  0  0  0  0
    4.5722    0.7607   29.4057 H   0  0  0  0  0  0  0  0  0  0  0  0
    6.2868    0.7718   29.8390 H   0  0  0  0  0  0  0  0  0  0  0  0
    5.8719    1.3822   27.3965 H   0  0  0  0  0  0  0  0  0  0  0  0
    5.1876   -1.5858   26.9981 H   0  0  0  0  0  0  0  0  0  0  0  0
    4.8688   -0.2583   25.8701 H   0  0  0  0  0  0  0  0  0  0  0  0
    2.9180    0.2725   27.0462 H   0  0  0  0  0  0  0  0  0  0  0  0
    0.4511   -2.7477   28.1082 H   0  0  0  0  0  0  0  0  0  0  0  0
   -1.8544   -1.8888   28.5329 H   0  0  0  0  0  0  0  0  0  0  0  0
   -0.4271    1.7961   29.7077 H   0  0  0  0  0  0  0  0  0  0  0  0
    1.9389    1.1087   29.3267 H   0  0  0  0  0  0  0  0  0  0  0  0
    7.7199   -1.0231   27.1297 H   0  0  0  0  0  0  0  0  0  0  0  0
    9.5490   -1.0090   25.8002 H   0  0  0  0  0  0  0  0  0  0  0  0
   10.7024   -0.0341   26.7468 H   0  0  0  0  0  0  0  0  0  0  0  0
   11.3588    2.1399   21.8687 H   0  0  0  0  0  0  0  0  0  0  0  0
   13.4388    0.5534   22.7533 H   0  0  0  0  0  0  0  0  0  0  0  0
   12.4729   -0.6412   24.7696 H   0  0  0  0  0  0  0  0  0  0  0  0
  1  2  1  0
  2  3  1  0
  3  4  1  0
  4  5  1  0
  5  6  2  0
  5  7  1  0
  7  8  2  0
  8  9  1  0
  9 10  2  0
 10 11  1  0
 11 12  2  0
  2 13  1  0
 13 14  1  0
 14 15  2  0
 14 16  1  0
 16 17  1  0
 17 18  2  0
 18 19  1  0
 19 20  2  0
 20 21  1  0
 12  7  1  0
 21 17  1  0
  1 22  1  0
  1 23  1  0
  1 24  1  0
  2 25  1  0
  3 26  1  0
  3 27  1  0
  4 28  1  0
  8 29  1  0
  9 30  1  0
 11 31  1  0
 12 32  1  0
 13 33  1  0
 16 34  1  0
 16 35  1  0
 19 36  1  0
 20 37  1  0
 21 38  1  0
M  END
>  <Energy>  (481) 
96.713552998130112

>  <compound_id>  (481) 
11942

>  <target_id>  (481) 
1

>  <reference_id>  (481) 
80

>  <inspiration_ids>  (481) 
[80, 59]

>  <energy_score>  (481) 
60.58071232428546

>  <distance_score>  (481) 
9.069291415613781

>  <path>  (481) 
/opt/xchem-fragalysis-2/maxwin/BulkDock/SCRATCH/511022/C11942-P80/C11942-P80.minimised.mol

>  <scratch_subdir>  (481) 
/opt/xchem-fragalysis-2/maxwin/BulkDock/SCRATCH/511022/C11942-P80

>  <fragmenstein_runtime>  (481) 
28.22662043571472

>  <fragmenstein_outcome>  (481) 
too moved

>  <fragmenstein_mode>  (481) 
expansion

>  <fragmenstein_error>  (481) 


$$$$
C11942-P59
     RDKit          3D

 38 39  0  0  0  0  0  0  0  0999 V2000
   -3.4867   -2.0105   26.7739 C   0  0  0  0  0  0  0  0  0  0  0  0
   -3.7321   -1.5334   25.3482 C   0  0  0  0  0  0  0  0  0  0  0  0
   -3.1481    0.2139   26.0481 C   0  0  0  0  0  0  0  0  0  0  0  0
   -1.8736    0.1853   26.7692 N   0  0  0  0  0  0  0  0  0  0  0  0
   -1.0534    1.2390   27.2547 C   0  0  0  0  0  0  0  0  0  0  0  0
   -1.1486    2.4206   27.1322 O   0  0  0  0  0  0  0  0  0  0  0  0
    0.0256    0.7177   28.1277 C   0  0  0  0  0  0  0  0  0  0  0  0
    1.3485    1.0206   27.8472 C   0  0  0  0  0  0  0  0  0  0  0  0
    2.3077    0.4780   28.6782 C   0  0  0  0  0  0  0  0  0  0  0  0
    2.0262   -0.3098   29.7419 N   0  0  0  0  0  0  0  0  0  0  0  0
    0.7266   -0.5458   30.0117 C   0  0  0  0  0  0  0  0  0  0  0  0
   -0.3078   -0.0599   29.2407 C   0  0  0  0  0  0  0  0  0  0  0  0
   -2.5379   -1.6759   24.6631 N   0  0  0  0  0  0  0  0  0  0  0  0
   -2.1208   -1.9547   22.8205 C   0  0  0  0  0  0  0  0  0  0  0  0
   -3.0590   -2.1419   22.0519 O   0  0  0  0  0  0  0  0  0  0  0  0
   -0.2548   -1.8217   21.6978 C   0  0  0  0  0  0  0  0  0  0  0  0
    0.4822   -0.9555   19.7693 C   0  0  0  0  0  0  0  0  0  0  0  0
    1.6443   -0.7080   19.1254 N   0  0  0  0  0  0  0  0  0  0  0  0
    1.7769   -0.5659   17.6998 C   0  0  0  0  0  0  0  0  0  0  0  0
    0.6164   -0.8004   17.1007 C   0  0  0  0  0  0  0  0  0  0  0  0
   -0.0828   -1.2644   18.1478 N   0  0  0  0  0  0  0  0  0  0  0  0
   -3.4330   -1.3275   27.6310 H   0  0  0  0  0  0  0  0  0  0  0  0
   -2.4555   -2.3583   26.8403 H   0  0  0  0  0  0  0  0  0  0  0  0
   -4.3591   -2.5963   27.0551 H   0  0  0  0  0  0  0  0  0  0  0  0
   -4.7260   -1.5933   24.8964 H   0  0  0  0  0  0  0  0  0  0  0  0
   -2.9809    1.0121   25.3080 H   0  0  0  0  0  0  0  0  0  0  0  0
   -3.8250    0.7560   26.7145 H   0  0  0  0  0  0  0  0  0  0  0  0
   -1.5328   -0.6934   27.1377 H   0  0  0  0  0  0  0  0  0  0  0  0
    1.6223    1.6549   27.0121 H   0  0  0  0  0  0  0  0  0  0  0  0
    3.3647    0.6682   28.5098 H   0  0  0  0  0  0  0  0  0  0  0  0
    0.5397   -1.1547   30.8911 H   0  0  0  0  0  0  0  0  0  0  0  0
   -1.3389   -0.2669   29.5017 H   0  0  0  0  0  0  0  0  0  0  0  0
   -1.7308   -1.4576   25.1308 H   0  0  0  0  0  0  0  0  0  0  0  0
    0.1654   -2.8415   21.7337 H   0  0  0  0  0  0  0  0  0  0  0  0
   -1.1189   -1.4498   21.3875 H   0  0  0  0  0  0  0  0  0  0  0  0
    2.7274   -0.3465   17.2346 H   0  0  0  0  0  0  0  0  0  0  0  0
    0.2934   -0.8583   16.0735 H   0  0  0  0  0  0  0  0  0  0  0  0
   -0.8751   -1.8741   18.0880 H   0  0  0  0  0  0  0  0  0  0  0  0
  1  2  1  0
  2  3  1  0
  3  4  1  0
  4  5  1  0
  5  6  2  0
  5  7  1  0
  7  8  2  0
  8  9  1  0
  9 10  2  0
 10 11  1  0
 11 12  2  0
  2 13  1  0
 13 14  1  0
 14 15  2  0
 14 16  1  0
 16 17  1  0
 17 18  2  0
 18 19  1  0
 19 20  2  0
 20 21  1  0
 12  7  1  0
 21 17  1  0
  1 22  1  0
  1 23  1  0
  1 24  1  0
  2 25  1  0
  3 26  1  0
  3 27  1  0
  4 28  1  0
  8 29  1  0
  9 30  1  0
 11 31  1  0
 12 32  1  0
 13 33  1  0
 16 34  1  0
 16 35  1  0
 19 36  1  0
 20 37  1  0
 21 38  1  0
M  END
>  <Energy>  (482) 
660.80770598447009

>  <compound_id>  (482) 
11942

>  <target_id>  (482) 
1

>  <reference_id>  (482) 
59

>  <inspiration_ids>  (482) 
[80, 59]

>  <energy_score>  (482) 
631.3465548476022

>  <distance_score>  (482) 
8.913454463933249

>  <path>  (482) 
/opt/xchem-fragalysis-2/maxwin/BulkDock/SCRATCH/511022/C11942-P59/C11942-P59.minimised.mol

>  <scratch_subdir>  (482) 
/opt/xchem-fragalysis-2/maxwin/BulkDock/SCRATCH/511022/C11942-P59

>  <fragmenstein_runtime>  (482) 
21.774105548858643

>  <fragmenstein_outcome>  (482) 
too moved

>  <fragmenstein_mode>  (482) 
expansion

>  <fragmenstein_error>  (482) 


$$$$
C8989-P80
     RDKit          3D

 35 36  0  0  0  0  0  0  0  0999 V2000
   -0.4637   -0.9877   28.6981 C   0  0  0  0  0  0  0  0  0  0  0  0
    0.8185   -1.9281   28.5919 C   0  0  0  0  0  0  0  0  0  0  0  0
    1.1494   -2.6674   29.9319 C   0  0  0  0  0  0  0  0  0  0  0  0
    0.3319   -2.0628   30.9265 N   0  0  0  0  0  0  0  0  0  0  0  0
   -1.0204   -2.4884   31.4931 C   0  0  0  0  0  0  0  0  0  0  0  0
   -1.6538   -3.4440   31.2970 O   0  0  0  0  0  0  0  0  0  0  0  0
   -1.4619   -1.3658   32.3080 C   0  0  0  0  0  0  0  0  0  0  0  0
   -2.7772   -1.1621   32.6561 C   0  0  0  0  0  0  0  0  0  0  0  0
   -3.0014    0.4763   33.0736 S   0  0  0  0  0  0  0  0  0  0  0  0
   -1.3350    0.7782   32.8504 C   0  0  0  0  0  0  0  0  0  0  0  0
   -0.6294   -0.2407   32.4348 N   0  0  0  0  0  0  0  0  0  0  0  0
    1.9967   -1.2435   28.0167 N   0  0  0  0  0  0  0  0  0  0  0  0
    3.5164   -1.6447   28.0304 C   0  0  0  0  0  0  0  0  0  0  0  0
    4.0621   -2.5350   28.5661 O   0  0  0  0  0  0  0  0  0  0  0  0
    4.3023   -0.7013   27.0737 C   0  0  0  0  0  0  0  0  0  0  0  0
    4.4592   -1.3559   25.7344 C   0  0  0  0  0  0  0  0  0  0  0  0
    5.4461   -1.4100   24.8787 N   0  0  0  0  0  0  0  0  0  0  0  0
    4.8929   -1.8255   23.7343 C   0  0  0  0  0  0  0  0  0  0  0  0
    3.7159   -2.4213   23.9899 C   0  0  0  0  0  0  0  0  0  0  0  0
    3.4949   -2.1791   25.2776 N   0  0  0  0  0  0  0  0  0  0  0  0
   -0.2951   -0.1501   29.3818 H   0  0  0  0  0  0  0  0  0  0  0  0
   -0.6572   -0.5472   27.7137 H   0  0  0  0  0  0  0  0  0  0  0  0
   -1.3555   -1.5535   28.9799 H   0  0  0  0  0  0  0  0  0  0  0  0
    0.5894   -2.7058   27.8555 H   0  0  0  0  0  0  0  0  0  0  0  0
    2.1898   -2.5727   30.2445 H   0  0  0  0  0  0  0  0  0  0  0  0
    0.8763   -3.7242   29.8552 H   0  0  0  0  0  0  0  0  0  0  0  0
    0.5562   -1.1215   31.2525 H   0  0  0  0  0  0  0  0  0  0  0  0
   -3.6043   -1.8555   32.5960 H   0  0  0  0  0  0  0  0  0  0  0  0
   -0.8956    1.7496   33.0381 H   0  0  0  0  0  0  0  0  0  0  0  0
    1.8570   -0.4641   27.3835 H   0  0  0  0  0  0  0  0  0  0  0  0
    5.2829   -0.5049   27.5200 H   0  0  0  0  0  0  0  0  0  0  0  0
    3.7891    0.2593   26.9691 H   0  0  0  0  0  0  0  0  0  0  0  0
    5.3032   -1.8082   22.7566 H   0  0  0  0  0  0  0  0  0  0  0  0
    2.9783   -2.9023   23.3741 H   0  0  0  0  0  0  0  0  0  0  0  0
    2.6168   -2.3951   25.7289 H   0  0  0  0  0  0  0  0  0  0  0  0
  1  2  1  0
  2  3  1  0
  3  4  1  0
  4  5  1  0
  5  6  2  0
  5  7  1  0
  7  8  2  0
  8  9  1  0
  9 10  1  0
 10 11  2  0
  2 12  1  0
 12 13  1  0
 13 14  2  0
 13 15  1  0
 15 16  1  0
 16 17  2  0
 17 18  1  0
 18 19  2  0
 19 20  1  0
 11  7  1  0
 20 16  1  0
  1 21  1  0
  1 22  1  0
  1 23  1  0
  2 24  1  0
  3 25  1  0
  3 26  1  0
  4 27  1  0
  8 28  1  0
 10 29  1  0
 12 30  1  0
 15 31  1  0
 15 32  1  0
 18 33  1  0
 19 34  1  0
 20 35  1  0
M  END
>  <Energy>  (483) 
77.358005167363302

>  <compound_id>  (483) 
8989

>  <target_id>  (483) 
1

>  <reference_id>  (483) 
80

>  <inspiration_ids>  (483) 
[80, 59]

>  <energy_score>  (483) 
-32.12946004412129

>  <distance_score>  (483) 
8.597735958606325

>  <path>  (483) 
/opt/xchem-fragalysis-2/maxwin/BulkDock/SCRATCH/511022/C8989-P80/C8989-P80.minimised.mol

>  <scratch_subdir>  (483) 
/opt/xchem-fragalysis-2/maxwin/BulkDock/SCRATCH/511022/C8989-P80

>  <fragmenstein_runtime>  (483) 
9.82904839515686

>  <fragmenstein_outcome>  (483) 
too moved

>  <fragmenstein_mode>  (483) 
expansion

>  <fragmenstein_error>  (483) 


$$$$
C8989-P59
     RDKit          3D

 35 36  0  0  0  0  0  0  0  0999 V2000
    0.9838    4.4411   23.2364 C   0  0  0  0  0  0  0  0  0  0  0  0
    2.5178    4.3059   23.1139 C   0  0  0  0  0  0  0  0  0  0  0  0
    3.2085    4.6321   24.4587 C   0  0  0  0  0  0  0  0  0  0  0  0
    2.6629    3.8383   25.5509 N   0  0  0  0  0  0  0  0  0  0  0  0
    1.6477    4.1372   26.5107 C   0  0  0  0  0  0  0  0  0  0  0  0
    1.0395    5.1448   26.7143 O   0  0  0  0  0  0  0  0  0  0  0  0
    1.3219    2.9199   27.3001 C   0  0  0  0  0  0  0  0  0  0  0  0
    0.3013    2.8459   28.2365 C   0  0  0  0  0  0  0  0  0  0  0  0
    0.1883    1.2612   28.8812 S   0  0  0  0  0  0  0  0  0  0  0  0
    1.4994    0.7856   27.8896 C   0  0  0  0  0  0  0  0  0  0  0  0
    2.0147    1.7154   27.1138 N   0  0  0  0  0  0  0  0  0  0  0  0
    3.0249    5.0340   21.9343 N   0  0  0  0  0  0  0  0  0  0  0  0
    4.3494    5.5630   21.6342 C   0  0  0  0  0  0  0  0  0  0  0  0
    5.3433    5.6109   22.3062 O   0  0  0  0  0  0  0  0  0  0  0  0
    4.3958    6.1518   20.1888 C   0  0  0  0  0  0  0  0  0  0  0  0
    5.5689    5.7233   19.3178 C   0  0  0  0  0  0  0  0  0  0  0  0
    5.5741    5.6789   17.9903 N   0  0  0  0  0  0  0  0  0  0  0  0
    6.8100    5.2058   17.6136 C   0  0  0  0  0  0  0  0  0  0  0  0
    7.5799    4.9516   18.7173 C   0  0  0  0  0  0  0  0  0  0  0  0
    6.7891    5.2954   19.7875 N   0  0  0  0  0  0  0  0  0  0  0  0
    0.5067    4.2375   22.2710 H   0  0  0  0  0  0  0  0  0  0  0  0
    0.5650    3.7347   23.9583 H   0  0  0  0  0  0  0  0  0  0  0  0
    0.7061    5.4583   23.5322 H   0  0  0  0  0  0  0  0  0  0  0  0
    2.7229    3.2514   22.8929 H   0  0  0  0  0  0  0  0  0  0  0  0
    3.0758    5.6911   24.7048 H   0  0  0  0  0  0  0  0  0  0  0  0
    4.2797    4.4164   24.4093 H   0  0  0  0  0  0  0  0  0  0  0  0
    3.0151    2.8967   25.7232 H   0  0  0  0  0  0  0  0  0  0  0  0
   -0.3730    3.6349   28.5469 H   0  0  0  0  0  0  0  0  0  0  0  0
    1.8751   -0.2293   27.9010 H   0  0  0  0  0  0  0  0  0  0  0  0
    2.4515    5.0847   21.1007 H   0  0  0  0  0  0  0  0  0  0  0  0
    3.4783    5.9061   19.6433 H   0  0  0  0  0  0  0  0  0  0  0  0
    4.4227    7.2430   20.2934 H   0  0  0  0  0  0  0  0  0  0  0  0
    7.0684    5.0737   16.5717 H   0  0  0  0  0  0  0  0  0  0  0  0
    8.5804    4.5655   18.8464 H   0  0  0  0  0  0  0  0  0  0  0  0
    7.0020    5.1200   20.7673 H   0  0  0  0  0  0  0  0  0  0  0  0
  1  2  1  0
  2  3  1  0
  3  4  1  0
  4  5  1  0
  5  6  2  0
  5  7  1  0
  7  8  2  0
  8  9  1  0
  9 10  1  0
 10 11  2  0
  2 12  1  0
 12 13  1  0
 13 14  2  0
 13 15  1  0
 15 16  1  0
 16 17  2  0
 17 18  1  0
 18 19  2  0
 19 20  1  0
 11  7  1  0
 20 16  1  0
  1 21  1  0
  1 22  1  0
  1 23  1  0
  2 24  1  0
  3 25  1  0
  3 26  1  0
  4 27  1  0
  8 28  1  0
 10 29  1  0
 12 30  1  0
 15 31  1  0
 15 32  1  0
 18 33  1  0
 19 34  1  0
 20 35  1  0
M  END
>  <Energy>  (484) 
30.603791252909534

>  <compound_id>  (484) 
8989

>  <target_id>  (484) 
1

>  <reference_id>  (484) 
59

>  <inspiration_ids>  (484) 
[80, 59]

>  <energy_score>  (484) 
-81.29251634085529

>  <distance_score>  (484) 
10.736299072383298

>  <path>  (484) 
/opt/xchem-fragalysis-2/maxwin/BulkDock/SCRATCH/511022/C8989-P59/C8989-P59.minimised.mol

>  <scratch_subdir>  (484) 
/opt/xchem-fragalysis-2/maxwin/BulkDock/SCRATCH/511022/C8989-P59

>  <fragmenstein_runtime>  (484) 
12.788468599319458

>  <fragmenstein_outcome>  (484) 
too moved

>  <fragmenstein_mode>  (484) 
expansion

>  <fragmenstein_error>  (484) 


$$$$
C9624-P80
     RDKit          3D

 38 39  0  0  0  0  0  0  0  0999 V2000
    0.3238   -2.4910   31.2201 C   0  0  0  0  0  0  0  0  0  0  0  0
    0.7038   -3.3445   29.9477 C   0  0  0  0  0  0  0  0  0  0  0  0
   -0.3833   -3.1510   28.8791 C   0  0  0  0  0  0  0  0  0  0  0  0
   -0.5157   -1.7492   28.6987 N   0  0  0  0  0  0  0  0  0  0  0  0
   -1.6993   -0.9219   28.2394 C   0  0  0  0  0  0  0  0  0  0  0  0
   -2.7416   -1.2494   27.8575 O   0  0  0  0  0  0  0  0  0  0  0  0
   -1.3099    0.4880   28.4690 C   0  0  0  0  0  0  0  0  0  0  0  0
   -1.7400    1.4504   27.5965 C   0  0  0  0  0  0  0  0  0  0  0  0
   -1.1166    2.6785   27.6959 C   0  0  0  0  0  0  0  0  0  0  0  0
   -0.1203    2.8842   28.6494 C   0  0  0  0  0  0  0  0  0  0  0  0
    0.1818    1.8721   29.5376 C   0  0  0  0  0  0  0  0  0  0  0  0
   -0.4105    0.6764   29.4863 N   0  0  0  0  0  0  0  0  0  0  0  0
    2.0520   -3.1631   29.3215 N   0  0  0  0  0  0  0  0  0  0  0  0
    2.6180   -1.9867   28.4237 C   0  0  0  0  0  0  0  0  0  0  0  0
    2.1295   -0.9611   28.1165 O   0  0  0  0  0  0  0  0  0  0  0  0
    4.0380   -2.4003   27.8993 C   0  0  0  0  0  0  0  0  0  0  0  0
    4.2297   -2.2120   26.3962 C   0  0  0  0  0  0  0  0  0  0  0  0
    3.7395   -2.9961   25.4567 N   0  0  0  0  0  0  0  0  0  0  0  0
    3.9655   -2.3433   24.3081 C   0  0  0  0  0  0  0  0  0  0  0  0
    4.8567   -1.3525   24.5050 C   0  0  0  0  0  0  0  0  0  0  0  0
    5.0874   -1.3038   25.8346 N   0  0  0  0  0  0  0  0  0  0  0  0
   -0.7184   -2.6555   31.5105 H   0  0  0  0  0  0  0  0  0  0  0  0
    0.5041   -1.4242   31.0661 H   0  0  0  0  0  0  0  0  0  0  0  0
    0.9654   -2.7983   32.0531 H   0  0  0  0  0  0  0  0  0  0  0  0
    0.6896   -4.3991   30.2489 H   0  0  0  0  0  0  0  0  0  0  0  0
   -1.3432   -3.5382   29.2184 H   0  0  0  0  0  0  0  0  0  0  0  0
   -0.1165   -3.6209   27.9323 H   0  0  0  0  0  0  0  0  0  0  0  0
    0.2794   -1.1301   28.8916 H   0  0  0  0  0  0  0  0  0  0  0  0
   -2.4795    1.2483   26.8347 H   0  0  0  0  0  0  0  0  0  0  0  0
   -1.3923    3.4877   27.0230 H   0  0  0  0  0  0  0  0  0  0  0  0
    0.3785    3.8461   28.7207 H   0  0  0  0  0  0  0  0  0  0  0  0
    0.9291    2.0029   30.3130 H   0  0  0  0  0  0  0  0  0  0  0  0
    2.7683   -3.8666   29.4501 H   0  0  0  0  0  0  0  0  0  0  0  0
    4.2377   -3.4514   28.1304 H   0  0  0  0  0  0  0  0  0  0  0  0
    4.7701   -1.7987   28.4502 H   0  0  0  0  0  0  0  0  0  0  0  0
    3.3715   -2.5961   23.4552 H   0  0  0  0  0  0  0  0  0  0  0  0
    5.0719   -0.5319   23.8827 H   0  0  0  0  0  0  0  0  0  0  0  0
    5.5631   -0.5833   26.3527 H   0  0  0  0  0  0  0  0  0  0  0  0
  1  2  1  0
  2  3  1  0
  3  4  1  0
  4  5  1  0
  5  6  2  0
  5  7  1  0
  7  8  2  0
  8  9  1  0
  9 10  2  0
 10 11  1  0
 11 12  2  0
  2 13  1  0
 13 14  1  0
 14 15  2  0
 14 16  1  0
 16 17  1  0
 17 18  2  0
 18 19  1  0
 19 20  2  0
 20 21  1  0
 12  7  1  0
 21 17  1  0
  1 22  1  0
  1 23  1  0
  1 24  1  0
  2 25  1  0
  3 26  1  0
  3 27  1  0
  4 28  1  0
  8 29  1  0
  9 30  1  0
 10 31  1  0
 11 32  1  0
 13 33  1  0
 16 34  1  0
 16 35  1  0
 19 36  1  0
 20 37  1  0
 21 38  1  0
M  END
>  <Energy>  (485) 
103.96287869120671

>  <compound_id>  (485) 
9624

>  <target_id>  (485) 
1

>  <reference_id>  (485) 
80

>  <inspiration_ids>  (485) 
[80, 59]

>  <energy_score>  (485) 
28.53525862522787

>  <distance_score>  (485) 
8.47181416246404

>  <path>  (485) 
/opt/xchem-fragalysis-2/maxwin/BulkDock/SCRATCH/511022/C9624-P80/C9624-P80.minimised.mol

>  <scratch_subdir>  (485) 
/opt/xchem-fragalysis-2/maxwin/BulkDock/SCRATCH/511022/C9624-P80

>  <fragmenstein_runtime>  (485) 
7.960265874862671

>  <fragmenstein_outcome>  (485) 
too moved

>  <fragmenstein_mode>  (485) 
expansion

>  <fragmenstein_error>  (485) 


$$$$
C9624-P59
     RDKit          3D

 38 39  0  0  0  0  0  0  0  0999 V2000
    3.8159   -5.5025   27.3195 C   0  0  0  0  0  0  0  0  0  0  0  0
    5.0501   -4.5917   27.3912 C   0  0  0  0  0  0  0  0  0  0  0  0
    4.7171   -3.1666   26.8984 C   0  0  0  0  0  0  0  0  0  0  0  0
    3.5919   -2.5631   27.5942 N   0  0  0  0  0  0  0  0  0  0  0  0
    3.3401   -2.3809   28.9901 C   0  0  0  0  0  0  0  0  0  0  0  0
    3.9535   -2.7479   29.9491 O   0  0  0  0  0  0  0  0  0  0  0  0
    2.0292   -1.6489   29.2113 C   0  0  0  0  0  0  0  0  0  0  0  0
    1.5310   -1.4433   30.4918 C   0  0  0  0  0  0  0  0  0  0  0  0
    0.2967   -0.8103   30.6279 C   0  0  0  0  0  0  0  0  0  0  0  0
   -0.3980   -0.4123   29.4901 C   0  0  0  0  0  0  0  0  0  0  0  0
    0.1727   -0.6585   28.2534 C   0  0  0  0  0  0  0  0  0  0  0  0
    1.3702   -1.2619   28.0849 N   0  0  0  0  0  0  0  0  0  0  0  0
    6.2596   -5.1333   26.7494 N   0  0  0  0  0  0  0  0  0  0  0  0
    6.4225   -5.9607   25.5533 C   0  0  0  0  0  0  0  0  0  0  0  0
    5.6060   -6.4703   24.8414 O   0  0  0  0  0  0  0  0  0  0  0  0
    7.9451   -6.2283   25.3337 C   0  0  0  0  0  0  0  0  0  0  0  0
    8.4842   -6.2907   23.9180 C   0  0  0  0  0  0  0  0  0  0  0  0
    7.8655   -6.4305   22.7611 N   0  0  0  0  0  0  0  0  0  0  0  0
    8.8340   -6.4589   21.7937 C   0  0  0  0  0  0  0  0  0  0  0  0
   10.0771   -6.2900   22.3447 C   0  0  0  0  0  0  0  0  0  0  0  0
    9.8492   -6.2000   23.6902 N   0  0  0  0  0  0  0  0  0  0  0  0
    4.0729   -6.5182   27.6390 H   0  0  0  0  0  0  0  0  0  0  0  0
    3.0077   -5.1462   27.9650 H   0  0  0  0  0  0  0  0  0  0  0  0
    3.4328   -5.5645   26.2955 H   0  0  0  0  0  0  0  0  0  0  0  0
    5.3290   -4.5234   28.4501 H   0  0  0  0  0  0  0  0  0  0  0  0
    4.4825   -3.1730   25.8288 H   0  0  0  0  0  0  0  0  0  0  0  0
    5.5804   -2.5089   27.0489 H   0  0  0  0  0  0  0  0  0  0  0  0
    2.8981   -2.0379   27.0607 H   0  0  0  0  0  0  0  0  0  0  0  0
    2.0890   -1.7727   31.3624 H   0  0  0  0  0  0  0  0  0  0  0  0
   -0.1190   -0.6339   31.6160 H   0  0  0  0  0  0  0  0  0  0  0  0
   -1.3635    0.0766   29.5612 H   0  0  0  0  0  0  0  0  0  0  0  0
   -0.3390   -0.3746   27.3372 H   0  0  0  0  0  0  0  0  0  0  0  0
    7.1671   -4.8042   27.0506 H   0  0  0  0  0  0  0  0  0  0  0  0
    8.5369   -5.4751   25.8675 H   0  0  0  0  0  0  0  0  0  0  0  0
    8.1533   -7.1916   25.8170 H   0  0  0  0  0  0  0  0  0  0  0  0
    8.5705   -6.5897   20.7587 H   0  0  0  0  0  0  0  0  0  0  0  0
   11.0689   -6.2307   21.9191 H   0  0  0  0  0  0  0  0  0  0  0  0
   10.5529   -6.0822   24.4060 H   0  0  0  0  0  0  0  0  0  0  0  0
  1  2  1  0
  2  3  1  0
  3  4  1  0
  4  5  1  0
  5  6  2  0
  5  7  1  0
  7  8  2  0
  8  9  1  0
  9 10  2  0
 10 11  1  0
 11 12  2  0
  2 13  1  0
 13 14  1  0
 14 15  2  0
 14 16  1  0
 16 17  1  0
 17 18  2  0
 18 19  1  0
 19 20  2  0
 20 21  1  0
 12  7  1  0
 21 17  1  0
  1 22  1  0
  1 23  1  0
  1 24  1  0
  2 25  1  0
  3 26  1  0
  3 27  1  0
  4 28  1  0
  8 29  1  0
  9 30  1  0
 10 31  1  0
 11 32  1  0
 13 33  1  0
 16 34  1  0
 16 35  1  0
 19 36  1  0
 20 37  1  0
 21 38  1  0
M  END
>  <Energy>  (486) 
74.234136487357148

>  <compound_id>  (486) 
9624

>  <target_id>  (486) 
1

>  <reference_id>  (486) 
59

>  <inspiration_ids>  (486) 
[80, 59]

>  <energy_score>  (486) 
-2.7385752632944786

>  <distance_score>  (486) 
9.257348488502949

>  <path>  (486) 
/opt/xchem-fragalysis-2/maxwin/BulkDock/SCRATCH/511022/C9624-P59/C9624-P59.minimised.mol

>  <scratch_subdir>  (486) 
/opt/xchem-fragalysis-2/maxwin/BulkDock/SCRATCH/511022/C9624-P59

>  <fragmenstein_runtime>  (486) 
12.445403099060059

>  <fragmenstein_outcome>  (486) 
too moved

>  <fragmenstein_mode>  (486) 
expansion

>  <fragmenstein_error>  (486) 


$$$$
C11894-P80
     RDKit          3D

 38 39  0  0  0  0  0  0  0  0999 V2000
    5.5982   -1.8104   21.6689 C   0  0  0  0  0  0  0  0  0  0  0  0
    6.3402   -0.2493   20.8719 C   0  0  0  0  0  0  0  0  0  0  0  0
    4.7967    0.5451   21.9279 C   0  0  0  0  0  0  0  0  0  0  0  0
    3.6161    1.7805   22.6503 N   0  0  0  0  0  0  0  0  0  0  0  0
    2.6054    2.6594   22.0119 C   0  0  0  0  0  0  0  0  0  0  0  0
    2.3527    2.8504   20.8513 O   0  0  0  0  0  0  0  0  0  0  0  0
    1.7691    3.3771   23.0754 C   0  0  0  0  0  0  0  0  0  0  0  0
    2.1978    3.6186   24.3905 C   0  0  0  0  0  0  0  0  0  0  0  0
    1.2799    3.9794   25.3805 C   0  0  0  0  0  0  0  0  0  0  0  0
   -0.0500    4.1090   25.0258 C   0  0  0  0  0  0  0  0  0  0  0  0
   -0.5024    3.9261   23.7680 N   0  0  0  0  0  0  0  0  0  0  0  0
    0.4175    3.5872   22.8206 C   0  0  0  0  0  0  0  0  0  0  0  0
    7.2987    0.7684   19.6037 N   0  0  0  0  0  0  0  0  0  0  0  0
    7.5447    0.5645   17.9724 C   0  0  0  0  0  0  0  0  0  0  0  0
    7.2275   -0.3428   17.2326 O   0  0  0  0  0  0  0  0  0  0  0  0
    8.1928    1.7772   17.2525 C   0  0  0  0  0  0  0  0  0  0  0  0
    9.3513    1.3396   16.4015 C   0  0  0  0  0  0  0  0  0  0  0  0
   10.5117    1.9553   16.2987 N   0  0  0  0  0  0  0  0  0  0  0  0
   11.2934    1.1700   15.4888 C   0  0  0  0  0  0  0  0  0  0  0  0
   10.5949    0.0684   15.0697 C   0  0  0  0  0  0  0  0  0  0  0  0
    9.3421    0.2192   15.5936 N   0  0  0  0  0  0  0  0  0  0  0  0
    4.8049   -1.3720   22.2278 H   0  0  0  0  0  0  0  0  0  0  0  0
    5.5746   -2.7098   21.0401 H   0  0  0  0  0  0  0  0  0  0  0  0
    5.6338   -2.1532   22.7310 H   0  0  0  0  0  0  0  0  0  0  0  0
    7.2268   -0.8777   20.8907 H   0  0  0  0  0  0  0  0  0  0  0  0
    3.9557    0.1856   21.5093 H   0  0  0  0  0  0  0  0  0  0  0  0
    4.8911    0.1630   22.9508 H   0  0  0  0  0  0  0  0  0  0  0  0
    3.4936    1.8032   23.6433 H   0  0  0  0  0  0  0  0  0  0  0  0
    3.2424    3.5296   24.6666 H   0  0  0  0  0  0  0  0  0  0  0  0
    1.5983    4.1616   26.4013 H   0  0  0  0  0  0  0  0  0  0  0  0
   -0.8040    4.3892   25.7569 H   0  0  0  0  0  0  0  0  0  0  0  0
    0.0095    3.4088   21.8273 H   0  0  0  0  0  0  0  0  0  0  0  0
    7.6216    1.6870   19.8891 H   0  0  0  0  0  0  0  0  0  0  0  0
    8.4312    2.6057   17.9007 H   0  0  0  0  0  0  0  0  0  0  0  0
    7.4300    2.1986   16.5898 H   0  0  0  0  0  0  0  0  0  0  0  0
   12.3154    1.4412   15.2574 H   0  0  0  0  0  0  0  0  0  0  0  0
   10.8549   -0.7624   14.4289 H   0  0  0  0  0  0  0  0  0  0  0  0
    8.5388   -0.3794   15.4206 H   0  0  0  0  0  0  0  0  0  0  0  0
  1  2  1  0
  2  3  1  0
  3  4  1  0
  4  5  1  0
  5  6  2  0
  5  7  1  0
  7  8  2  0
  8  9  1  0
  9 10  2  0
 10 11  1  0
 11 12  2  0
  2 13  1  0
 13 14  1  0
 14 15  2  0
 14 16  1  0
 16 17  1  0
 17 18  2  0
 18 19  1  0
 19 20  2  0
 20 21  1  0
 12  7  1  0
 21 17  1  0
  1 22  1  0
  1 23  1  0
  1 24  1  0
  2 25  1  0
  3 26  1  0
  3 27  1  0
  4 28  1  0
  8 29  1  0
  9 30  1  0
 10 31  1  0
 12 32  1  0
 13 33  1  0
 16 34  1  0
 16 35  1  0
 19 36  1  0
 20 37  1  0
 21 38  1  0
M  END
>  <Energy>  (487) 
462.046951079211

>  <compound_id>  (487) 
11894

>  <target_id>  (487) 
1

>  <reference_id>  (487) 
80

>  <inspiration_ids>  (487) 
[80, 59]

>  <energy_score>  (487) 
402.7009823076007

>  <distance_score>  (487) 
11.649978333076994

>  <path>  (487) 
/opt/xchem-fragalysis-2/maxwin/BulkDock/SCRATCH/511022/C11894-P80/C11894-P80.minimised.mol

>  <scratch_subdir>  (487) 
/opt/xchem-fragalysis-2/maxwin/BulkDock/SCRATCH/511022/C11894-P80

>  <fragmenstein_runtime>  (487) 
15.403843402862549

>  <fragmenstein_outcome>  (487) 
too moved

>  <fragmenstein_mode>  (487) 
expansion

>  <fragmenstein_error>  (487) 


$$$$
C11894-P59
     RDKit          3D

 38 39  0  0  0  0  0  0  0  0999 V2000
    4.6675   -0.4535   26.2485 C   0  0  0  0  0  0  0  0  0  0  0  0
    4.7844    0.8082   25.3833 C   0  0  0  0  0  0  0  0  0  0  0  0
    3.6695    1.8469   25.7001 C   0  0  0  0  0  0  0  0  0  0  0  0
    2.6506    1.4155   26.6482 N   0  0  0  0  0  0  0  0  0  0  0  0
    2.2618    1.9506   27.9165 C   0  0  0  0  0  0  0  0  0  0  0  0
    2.6191    2.9360   28.4905 O   0  0  0  0  0  0  0  0  0  0  0  0
    1.1888    1.1495   28.5957 C   0  0  0  0  0  0  0  0  0  0  0  0
    0.1786    0.4680   27.9087 C   0  0  0  0  0  0  0  0  0  0  0  0
   -0.7778   -0.2621   28.6121 C   0  0  0  0  0  0  0  0  0  0  0  0
   -0.7100   -0.2657   29.9932 C   0  0  0  0  0  0  0  0  0  0  0  0
    0.2230    0.4080   30.7005 N   0  0  0  0  0  0  0  0  0  0  0  0
    1.1465    1.1065   29.9850 C   0  0  0  0  0  0  0  0  0  0  0  0
    4.9354    0.5640   23.9273 N   0  0  0  0  0  0  0  0  0  0  0  0
    4.9230   -0.7126   23.1387 C   0  0  0  0  0  0  0  0  0  0  0  0
    4.7070   -1.8448   23.4933 O   0  0  0  0  0  0  0  0  0  0  0  0
    5.3912   -0.6264   21.2283 C   0  0  0  0  0  0  0  0  0  0  0  0
    6.6593    0.2878   19.9051 C   0  0  0  0  0  0  0  0  0  0  0  0
    7.4815    1.4609   19.9377 N   0  0  0  0  0  0  0  0  0  0  0  0
    8.1651    1.6522   18.7702 C   0  0  0  0  0  0  0  0  0  0  0  0
    7.8832    0.6214   17.9441 C   0  0  0  0  0  0  0  0  0  0  0  0
    7.0322   -0.1734   18.6691 N   0  0  0  0  0  0  0  0  0  0  0  0
    5.5075   -1.1288   26.0525 H   0  0  0  0  0  0  0  0  0  0  0  0
    3.7516   -1.0053   26.0486 H   0  0  0  0  0  0  0  0  0  0  0  0
    4.6970   -0.2037   27.3144 H   0  0  0  0  0  0  0  0  0  0  0  0
    5.7321    1.2872   25.6580 H   0  0  0  0  0  0  0  0  0  0  0  0
    3.1433    2.1400   24.7855 H   0  0  0  0  0  0  0  0  0  0  0  0
    4.1282    2.7550   26.1081 H   0  0  0  0  0  0  0  0  0  0  0  0
    2.2025    0.5182   26.5177 H   0  0  0  0  0  0  0  0  0  0  0  0
    0.0969    0.5188   26.8306 H   0  0  0  0  0  0  0  0  0  0  0  0
   -1.5602   -0.8047   28.0903 H   0  0  0  0  0  0  0  0  0  0  0  0
   -1.4327   -0.8178   30.5866 H   0  0  0  0  0  0  0  0  0  0  0  0
    1.8784    1.6441   30.5837 H   0  0  0  0  0  0  0  0  0  0  0  0
    5.0698    1.3341   23.3029 H   0  0  0  0  0  0  0  0  0  0  0  0
    4.6235    0.1974   21.1896 H   0  0  0  0  0  0  0  0  0  0  0  0
    5.5053   -1.7120   20.9266 H   0  0  0  0  0  0  0  0  0  0  0  0
    8.7890    2.5224   18.6076 H   0  0  0  0  0  0  0  0  0  0  0  0
    8.1402    0.4154   16.9142 H   0  0  0  0  0  0  0  0  0  0  0  0
    6.3855   -0.8623   18.3182 H   0  0  0  0  0  0  0  0  0  0  0  0
  1  2  1  0
  2  3  1  0
  3  4  1  0
  4  5  1  0
  5  6  2  0
  5  7  1  0
  7  8  2  0
  8  9  1  0
  9 10  2  0
 10 11  1  0
 11 12  2  0
  2 13  1  0
 13 14  1  0
 14 15  2  0
 14 16  1  0
 16 17  1  0
 17 18  2  0
 18 19  1  0
 19 20  2  0
 20 21  1  0
 12  7  1  0
 21 17  1  0
  1 22  1  0
  1 23  1  0
  1 24  1  0
  2 25  1  0
  3 26  1  0
  3 27  1  0
  4 28  1  0
  8 29  1  0
  9 30  1  0
 10 31  1  0
 12 32  1  0
 13 33  1  0
 16 34  1  0
 16 35  1  0
 19 36  1  0
 20 37  1  0
 21 38  1  0
M  END
>  <Energy>  (488) 
238.60819996120071

>  <compound_id>  (488) 
11894

>  <target_id>  (488) 
1

>  <reference_id>  (488) 
59

>  <inspiration_ids>  (488) 
[80, 59]

>  <energy_score>  (488) 
179.2622311896023

>  <distance_score>  (488) 
8.801630763476805

>  <path>  (488) 
/opt/xchem-fragalysis-2/maxwin/BulkDock/SCRATCH/511022/C11894-P59/C11894-P59.minimised.mol

>  <scratch_subdir>  (488) 
/opt/xchem-fragalysis-2/maxwin/BulkDock/SCRATCH/511022/C11894-P59

>  <fragmenstein_runtime>  (488) 
13.870378494262695

>  <fragmenstein_outcome>  (488) 
too moved

>  <fragmenstein_mode>  (488) 
expansion

>  <fragmenstein_error>  (488) 


$$$$
C11943-P80
     RDKit          3D

 44 45  0  0  0  0  0  0  0  0999 V2000
    8.5930    2.3793   16.9026 C   0  0  0  0  0  0  0  0  0  0  0  0
    7.5366    2.5052   18.0027 C   0  0  0  0  0  0  0  0  0  0  0  0
    7.3239    1.2342   18.8783 C   0  0  0  0  0  0  0  0  0  0  0  0
    7.5400   -0.0670   18.4913 C   0  0  0  0  0  0  0  0  0  0  0  0
    7.6813   -0.9559   19.6065 N   0  0  0  0  0  0  0  0  0  0  0  0
    6.9453   -0.5867   20.6765 C   0  0  0  0  0  0  0  0  0  0  0  0
    5.5535   -1.5716   21.7686 C   0  0  0  0  0  0  0  0  0  0  0  0
    4.6100   -1.6314   23.4891 C   0  0  0  0  0  0  0  0  0  0  0  0
    3.9177   -2.5993   23.5337 O   0  0  0  0  0  0  0  0  0  0  0  0
    4.8167   -0.6258   24.4802 N   0  0  0  0  0  0  0  0  0  0  0  0
    4.1812   -0.4120   25.8001 C   0  0  0  0  0  0  0  0  0  0  0  0
    3.6328   -1.7078   26.4521 C   0  0  0  0  0  0  0  0  0  0  0  0
    4.9185    0.3684   26.9156 C   0  0  0  0  0  0  0  0  0  0  0  0
    3.9216    0.6934   27.9306 N   0  0  0  0  0  0  0  0  0  0  0  0
    3.0490    1.8124   28.0595 C   0  0  0  0  0  0  0  0  0  0  0  0
    2.9629    2.8137   27.4143 O   0  0  0  0  0  0  0  0  0  0  0  0
    2.0253    1.6185   29.1279 C   0  0  0  0  0  0  0  0  0  0  0  0
    1.2364    0.4626   29.1335 C   0  0  0  0  0  0  0  0  0  0  0  0
    0.2281    0.3675   30.0736 C   0  0  0  0  0  0  0  0  0  0  0  0
   -0.0370    1.3300   30.9814 N   0  0  0  0  0  0  0  0  0  0  0  0
    0.7293    2.4449   30.9337 C   0  0  0  0  0  0  0  0  0  0  0  0
    1.7575    2.6406   30.0300 C   0  0  0  0  0  0  0  0  0  0  0  0
    7.5477    0.8343   20.4848 N   0  0  0  0  0  0  0  0  0  0  0  0
    8.3649    1.5604   16.2173 H   0  0  0  0  0  0  0  0  0  0  0  0
    8.6191    3.3011   16.3109 H   0  0  0  0  0  0  0  0  0  0  0  0
    9.6007    2.2111   17.2794 H   0  0  0  0  0  0  0  0  0  0  0  0
    7.6665    3.4263   18.5644 H   0  0  0  0  0  0  0  0  0  0  0  0
    6.6413    2.7817   17.4585 H   0  0  0  0  0  0  0  0  0  0  0  0
    7.8312   -0.2353   17.4567 H   0  0  0  0  0  0  0  0  0  0  0  0
    5.6748   -2.5798   22.1745 H   0  0  0  0  0  0  0  0  0  0  0  0
    5.5107   -2.4517   21.0474 H   0  0  0  0  0  0  0  0  0  0  0  0
    5.3819    0.0854   24.0948 H   0  0  0  0  0  0  0  0  0  0  0  0
    3.3059    0.1893   25.5394 H   0  0  0  0  0  0  0  0  0  0  0  0
    4.4224   -2.2186   27.0116 H   0  0  0  0  0  0  0  0  0  0  0  0
    3.2513   -2.4215   25.7302 H   0  0  0  0  0  0  0  0  0  0  0  0
    2.8182   -1.4985   27.1488 H   0  0  0  0  0  0  0  0  0  0  0  0
    5.3490    1.3063   26.5666 H   0  0  0  0  0  0  0  0  0  0  0  0
    5.7091   -0.2300   27.3783 H   0  0  0  0  0  0  0  0  0  0  0  0
    3.7652    0.0613   28.7080 H   0  0  0  0  0  0  0  0  0  0  0  0
    1.3670   -0.3230   28.3987 H   0  0  0  0  0  0  0  0  0  0  0  0
   -0.4195   -0.5037   30.1144 H   0  0  0  0  0  0  0  0  0  0  0  0
    0.4778    3.2129   31.6603 H   0  0  0  0  0  0  0  0  0  0  0  0
    2.3177    3.5691   30.0118 H   0  0  0  0  0  0  0  0  0  0  0  0
    7.4849    1.5887   21.1608 H   0  0  0  0  0  0  0  0  0  0  0  0
  1  2  1  0
  2  3  1  0
  3  4  2  0
  4  5  1  0
  5  6  2  0
  6  7  1  0
  7  8  1  0
  8  9  2  0
  8 10  1  0
 10 11  1  0
 11 12  1  0
 11 13  1  0
 13 14  1  0
 14 15  1  0
 15 16  2  0
 15 17  1  0
 17 18  2  0
 18 19  1  0
 19 20  2  0
 20 21  1  0
 21 22  2  0
  6 23  1  0
 23  3  1  0
 22 17  1  0
  1 24  1  0
  1 25  1  0
  1 26  1  0
  2 27  1  0
  2 28  1  0
  4 29  1  0
  7 30  1  0
  7 31  1  0
 10 32  1  0
 11 33  1  0
 12 34  1  0
 12 35  1  0
 12 36  1  0
 13 37  1  0
 13 38  1  0
 14 39  1  0
 18 40  1  0
 19 41  1  0
 21 42  1  0
 22 43  1  0
 23 44  1  0
M  END
>  <Energy>  (489) 
347.10194790562542

>  <compound_id>  (489) 
11943

>  <target_id>  (489) 
1

>  <reference_id>  (489) 
80

>  <inspiration_ids>  (489) 
[80, 59]

>  <energy_score>  (489) 
310.31099992611064

>  <distance_score>  (489) 
8.811334730571383

>  <path>  (489) 
/opt/xchem-fragalysis-2/maxwin/BulkDock/SCRATCH/511022/C11943-P80/C11943-P80.minimised.mol

>  <scratch_subdir>  (489) 
/opt/xchem-fragalysis-2/maxwin/BulkDock/SCRATCH/511022/C11943-P80

>  <fragmenstein_runtime>  (489) 
13.97397494316101

>  <fragmenstein_outcome>  (489) 
too moved

>  <fragmenstein_mode>  (489) 
expansion

>  <fragmenstein_error>  (489) 


$$$$
C11943-P59
     RDKit          3D

 44 45  0  0  0  0  0  0  0  0999 V2000
   10.4142   -3.2815   21.4840 C   0  0  0  0  0  0  0  0  0  0  0  0
    8.1470   -3.4439   21.1384 C   0  0  0  0  0  0  0  0  0  0  0  0
    6.6006   -3.5338   22.5118 C   0  0  0  0  0  0  0  0  0  0  0  0
    5.7012   -2.6938   23.5738 C   0  0  0  0  0  0  0  0  0  0  0  0
    5.3337   -3.3205   24.7972 N   0  0  0  0  0  0  0  0  0  0  0  0
    5.7078   -4.5826   24.7375 C   0  0  0  0  0  0  0  0  0  0  0  0
    5.5014   -5.5791   25.8273 C   0  0  0  0  0  0  0  0  0  0  0  0
    4.1457   -5.3914   26.5523 C   0  0  0  0  0  0  0  0  0  0  0  0
    3.3988   -6.3294   26.5881 O   0  0  0  0  0  0  0  0  0  0  0  0
    4.0440   -4.0861   27.1532 N   0  0  0  0  0  0  0  0  0  0  0  0
    2.9654   -3.4637   27.9085 C   0  0  0  0  0  0  0  0  0  0  0  0
    3.1140   -1.9366   27.9541 C   0  0  0  0  0  0  0  0  0  0  0  0
    2.7700   -4.0313   29.3320 C   0  0  0  0  0  0  0  0  0  0  0  0
    1.6137   -3.4025   29.9490 N   0  0  0  0  0  0  0  0  0  0  0  0
    0.3051   -3.8997   30.2034 C   0  0  0  0  0  0  0  0  0  0  0  0
   -0.1606   -4.9879   30.0491 O   0  0  0  0  0  0  0  0  0  0  0  0
   -0.6118   -2.8184   30.6415 C   0  0  0  0  0  0  0  0  0  0  0  0
   -1.2037   -2.8681   31.8954 C   0  0  0  0  0  0  0  0  0  0  0  0
   -2.0499   -1.8286   32.2347 C   0  0  0  0  0  0  0  0  0  0  0  0
   -2.3348   -0.7857   31.4192 N   0  0  0  0  0  0  0  0  0  0  0  0
   -1.7592   -0.7847   30.1969 C   0  0  0  0  0  0  0  0  0  0  0  0
   -0.8977   -1.7716   29.7623 C   0  0  0  0  0  0  0  0  0  0  0  0
    6.3629   -4.8805   23.5129 N   0  0  0  0  0  0  0  0  0  0  0  0
   10.6648   -3.1150   22.5798 H   0  0  0  0  0  0  0  0  0  0  0  0
   11.3152   -2.9994   20.9386 H   0  0  0  0  0  0  0  0  0  0  0  0
   10.7634   -4.3897   21.5093 H   0  0  0  0  0  0  0  0  0  0  0  0
    8.3106   -4.1056   20.2529 H   0  0  0  0  0  0  0  0  0  0  0  0
    7.6819   -4.4421   21.1419 H   0  0  0  0  0  0  0  0  0  0  0  0
    5.1236   -1.7781   23.3872 H   0  0  0  0  0  0  0  0  0  0  0  0
    5.5338   -6.5955   25.4180 H   0  0  0  0  0  0  0  0  0  0  0  0
    6.3021   -5.4937   26.5702 H   0  0  0  0  0  0  0  0  0  0  0  0
    4.8309   -3.5120   26.8378 H   0  0  0  0  0  0  0  0  0  0  0  0
    2.0546   -3.7004   27.3557 H   0  0  0  0  0  0  0  0  0  0  0  0
    3.9163   -1.6439   28.6404 H   0  0  0  0  0  0  0  0  0  0  0  0
    3.3791   -1.5400   26.9689 H   0  0  0  0  0  0  0  0  0  0  0  0
    2.1903   -1.4412   28.2665 H   0  0  0  0  0  0  0  0  0  0  0  0
    3.6420   -3.8265   29.9612 H   0  0  0  0  0  0  0  0  0  0  0  0
    2.6054   -5.1132   29.2992 H   0  0  0  0  0  0  0  0  0  0  0  0
    1.6270   -2.4034   30.1233 H   0  0  0  0  0  0  0  0  0  0  0  0
   -1.0080   -3.6802   32.5865 H   0  0  0  0  0  0  0  0  0  0  0  0
   -2.5407   -1.8081   33.2052 H   0  0  0  0  0  0  0  0  0  0  0  0
   -2.0282    0.0481   29.5522 H   0  0  0  0  0  0  0  0  0  0  0  0
   -0.4885   -1.7412   28.7575 H   0  0  0  0  0  0  0  0  0  0  0  0
    6.5465   -5.8044   23.1671 H   0  0  0  0  0  0  0  0  0  0  0  0
  1  2  1  0
  2  3  1  0
  3  4  2  0
  4  5  1  0
  5  6  2  0
  6  7  1  0
  7  8  1  0
  8  9  2  0
  8 10  1  0
 10 11  1  0
 11 12  1  0
 11 13  1  0
 13 14  1  0
 14 15  1  0
 15 16  2  0
 15 17  1  0
 17 18  2  0
 18 19  1  0
 19 20  2  0
 20 21  1  0
 21 22  2  0
  6 23  1  0
 23  3  1  0
 22 17  1  0
  1 24  1  0
  1 25  1  0
  1 26  1  0
  2 27  1  0
  2 28  1  0
  4 29  1  0
  7 30  1  0
  7 31  1  0
 10 32  1  0
 11 33  1  0
 12 34  1  0
 12 35  1  0
 12 36  1  0
 13 37  1  0
 13 38  1  0
 14 39  1  0
 18 40  1  0
 19 41  1  0
 21 42  1  0
 22 43  1  0
 23 44  1  0
M  END
>  <Energy>  (490) 
455.9246527611337

>  <compound_id>  (490) 
11943

>  <target_id>  (490) 
1

>  <reference_id>  (490) 
59

>  <inspiration_ids>  (490) 
[80, 59]

>  <energy_score>  (490) 
419.133704781619

>  <distance_score>  (490) 
8.525434754935183

>  <path>  (490) 
/opt/xchem-fragalysis-2/maxwin/BulkDock/SCRATCH/511022/C11943-P59/C11943-P59.minimised.mol

>  <scratch_subdir>  (490) 
/opt/xchem-fragalysis-2/maxwin/BulkDock/SCRATCH/511022/C11943-P59

>  <fragmenstein_runtime>  (490) 
16.046570777893066

>  <fragmenstein_outcome>  (490) 
too moved

>  <fragmenstein_mode>  (490) 
expansion

>  <fragmenstein_error>  (490) 


$$$$
C9625-P80
     RDKit          3D

 44 45  0  0  0  0  0  0  0  0999 V2000
    7.1116    3.9725   17.9375 C   0  0  0  0  0  0  0  0  0  0  0  0
    7.6942    2.5755   17.7887 C   0  0  0  0  0  0  0  0  0  0  0  0
    7.3815    1.5129   18.8537 C   0  0  0  0  0  0  0  0  0  0  0  0
    7.4370    0.1180   18.6289 C   0  0  0  0  0  0  0  0  0  0  0  0
    7.3701   -0.6754   19.7907 N   0  0  0  0  0  0  0  0  0  0  0  0
    6.7387   -0.0167   20.7947 C   0  0  0  0  0  0  0  0  0  0  0  0
    4.8883    0.2898   21.6434 C   0  0  0  0  0  0  0  0  0  0  0  0
    3.2631    1.5099   21.8285 C   0  0  0  0  0  0  0  0  0  0  0  0
    2.5763    1.8259   20.8956 O   0  0  0  0  0  0  0  0  0  0  0  0
    3.2149    1.9508   23.2391 N   0  0  0  0  0  0  0  0  0  0  0  0
    2.3904    2.9681   23.9061 C   0  0  0  0  0  0  0  0  0  0  0  0
    2.6883    4.3818   23.4553 C   0  0  0  0  0  0  0  0  0  0  0  0
    2.6264    2.8549   25.4403 C   0  0  0  0  0  0  0  0  0  0  0  0
    1.3838    2.8994   26.1363 N   0  0  0  0  0  0  0  0  0  0  0  0
    0.6587    3.9901   26.6767 C   0  0  0  0  0  0  0  0  0  0  0  0
    0.9367    5.1470   26.7605 O   0  0  0  0  0  0  0  0  0  0  0  0
   -0.6941    3.4890   27.0893 C   0  0  0  0  0  0  0  0  0  0  0  0
   -1.7656    4.3401   26.9068 C   0  0  0  0  0  0  0  0  0  0  0  0
   -3.0092    3.7583   26.7573 C   0  0  0  0  0  0  0  0  0  0  0  0
   -3.1389    2.3771   26.8508 C   0  0  0  0  0  0  0  0  0  0  0  0
   -2.0282    1.6115   27.1522 C   0  0  0  0  0  0  0  0  0  0  0  0
   -0.7930    2.1270   27.2405 N   0  0  0  0  0  0  0  0  0  0  0  0
    7.5974    1.4092   20.4912 N   0  0  0  0  0  0  0  0  0  0  0  0
    7.3134    4.4227   18.9125 H   0  0  0  0  0  0  0  0  0  0  0  0
    7.5401    4.6315   17.1743 H   0  0  0  0  0  0  0  0  0  0  0  0
    6.0282    3.9745   17.7790 H   0  0  0  0  0  0  0  0  0  0  0  0
    7.3366    2.1874   16.8280 H   0  0  0  0  0  0  0  0  0  0  0  0
    8.7724    2.6455   17.6181 H   0  0  0  0  0  0  0  0  0  0  0  0
    7.6956   -0.1852   17.6229 H   0  0  0  0  0  0  0  0  0  0  0  0
    5.0849    0.5791   22.6100 H   0  0  0  0  0  0  0  0  0  0  0  0
    4.7015   -0.7380   21.9848 H   0  0  0  0  0  0  0  0  0  0  0  0
    3.8794    1.4227   23.7665 H   0  0  0  0  0  0  0  0  0  0  0  0
    1.3370    2.8158   23.6747 H   0  0  0  0  0  0  0  0  0  0  0  0
    3.7362    4.6475   23.6332 H   0  0  0  0  0  0  0  0  0  0  0  0
    2.0580    5.1094   23.9767 H   0  0  0  0  0  0  0  0  0  0  0  0
    2.5070    4.4908   22.3804 H   0  0  0  0  0  0  0  0  0  0  0  0
    3.2708    3.6578   25.8134 H   0  0  0  0  0  0  0  0  0  0  0  0
    3.0722    1.8952   25.7190 H   0  0  0  0  0  0  0  0  0  0  0  0
    0.8668    2.0372   26.3137 H   0  0  0  0  0  0  0  0  0  0  0  0
   -1.6256    5.4077   26.7746 H   0  0  0  0  0  0  0  0  0  0  0  0
   -3.8812    4.3799   26.5697 H   0  0  0  0  0  0  0  0  0  0  0  0
   -4.1174    1.9364   26.7212 H   0  0  0  0  0  0  0  0  0  0  0  0
   -2.1015    0.5379   27.2964 H   0  0  0  0  0  0  0  0  0  0  0  0
    7.4056    2.2184   21.0661 H   0  0  0  0  0  0  0  0  0  0  0  0
  1  2  1  0
  2  3  1  0
  3  4  2  0
  4  5  1  0
  5  6  2  0
  6  7  1  0
  7  8  1  0
  8  9  2  0
  8 10  1  0
 10 11  1  0
 11 12  1  0
 11 13  1  0
 13 14  1  0
 14 15  1  0
 15 16  2  0
 15 17  1  0
 17 18  2  0
 18 19  1  0
 19 20  2  0
 20 21  1  0
 21 22  2  0
  6 23  1  0
 23  3  1  0
 22 17  1  0
  1 24  1  0
  1 25  1  0
  1 26  1  0
  2 27  1  0
  2 28  1  0
  4 29  1  0
  7 30  1  0
  7 31  1  0
 10 32  1  0
 11 33  1  0
 12 34  1  0
 12 35  1  0
 12 36  1  0
 13 37  1  0
 13 38  1  0
 14 39  1  0
 18 40  1  0
 19 41  1  0
 20 42  1  0
 21 43  1  0
 23 44  1  0
M  END
>  <Energy>  (491) 
353.29078536697068

>  <compound_id>  (491) 
9625

>  <target_id>  (491) 
1

>  <reference_id>  (491) 
80

>  <inspiration_ids>  (491) 
[80, 59]

>  <energy_score>  (491) 
267.66052088353985

>  <distance_score>  (491) 
9.42990106323259

>  <path>  (491) 
/opt/xchem-fragalysis-2/maxwin/BulkDock/SCRATCH/511022/C9625-P80/C9625-P80.minimised.mol

>  <scratch_subdir>  (491) 
/opt/xchem-fragalysis-2/maxwin/BulkDock/SCRATCH/511022/C9625-P80

>  <fragmenstein_runtime>  (491) 
15.262453317642212

>  <fragmenstein_outcome>  (491) 
too moved

>  <fragmenstein_mode>  (491) 
expansion

>  <fragmenstein_error>  (491) 


$$$$
C9625-P59
     RDKit          3D

 44 45  0  0  0  0  0  0  0  0999 V2000
    9.5443    0.1964   15.9892 C   0  0  0  0  0  0  0  0  0  0  0  0
    8.1307    0.4731   16.4385 C   0  0  0  0  0  0  0  0  0  0  0  0
    7.8909    0.6152   17.9062 C   0  0  0  0  0  0  0  0  0  0  0  0
    8.2029    1.6241   18.7543 C   0  0  0  0  0  0  0  0  0  0  0  0
    7.5068    1.4484   19.9157 N   0  0  0  0  0  0  0  0  0  0  0  0
    6.6603    0.2992   19.8928 C   0  0  0  0  0  0  0  0  0  0  0  0
    5.2351   -0.4190   21.1885 C   0  0  0  0  0  0  0  0  0  0  0  0
    4.9298   -0.6467   23.1142 C   0  0  0  0  0  0  0  0  0  0  0  0
    4.7929   -1.8007   23.4465 O   0  0  0  0  0  0  0  0  0  0  0  0
    4.9322    0.6078   23.9400 N   0  0  0  0  0  0  0  0  0  0  0  0
    4.8674    0.8030   25.4039 C   0  0  0  0  0  0  0  0  0  0  0  0
    4.4432   -0.4274   26.2191 C   0  0  0  0  0  0  0  0  0  0  0  0
    4.0777    2.0815   25.8179 C   0  0  0  0  0  0  0  0  0  0  0  0
    2.7924    1.8252   26.4333 N   0  0  0  0  0  0  0  0  0  0  0  0
    1.6092    2.6147   26.4904 C   0  0  0  0  0  0  0  0  0  0  0  0
    1.3432    3.6608   25.9787 O   0  0  0  0  0  0  0  0  0  0  0  0
    0.5446    1.8726   27.2804 C   0  0  0  0  0  0  0  0  0  0  0  0
   -0.7749    2.2958   27.2546 C   0  0  0  0  0  0  0  0  0  0  0  0
   -1.7339    1.4822   27.8484 C   0  0  0  0  0  0  0  0  0  0  0  0
   -1.3480    0.2885   28.4505 C   0  0  0  0  0  0  0  0  0  0  0  0
   -0.0040   -0.0430   28.4538 C   0  0  0  0  0  0  0  0  0  0  0  0
    0.9575    0.7186   27.8911 N   0  0  0  0  0  0  0  0  0  0  0  0
    7.0275   -0.1744   18.6514 N   0  0  0  0  0  0  0  0  0  0  0  0
    9.5927    0.2020   14.8947 H   0  0  0  0  0  0  0  0  0  0  0  0
   10.2233    0.9741   16.3455 H   0  0  0  0  0  0  0  0  0  0  0  0
    9.8974   -0.7820   16.3178 H   0  0  0  0  0  0  0  0  0  0  0  0
    7.4606   -0.2815   16.0136 H   0  0  0  0  0  0  0  0  0  0  0  0
    7.8578    1.4397   16.0025 H   0  0  0  0  0  0  0  0  0  0  0  0
    8.8191    2.4997   18.5875 H   0  0  0  0  0  0  0  0  0  0  0  0
    4.3044    0.1521   21.3554 H   0  0  0  0  0  0  0  0  0  0  0  0
    5.0198    0.6671   20.8320 H   0  0  0  0  0  0  0  0  0  0  0  0
    4.9871    1.4004   23.3322 H   0  0  0  0  0  0  0  0  0  0  0  0
    5.9121    1.0013   25.6705 H   0  0  0  0  0  0  0  0  0  0  0  0
    5.0736   -1.2897   25.9803 H   0  0  0  0  0  0  0  0  0  0  0  0
    4.5517   -0.2376   27.2926 H   0  0  0  0  0  0  0  0  0  0  0  0
    3.4099   -0.7007   26.0213 H   0  0  0  0  0  0  0  0  0  0  0  0
    3.9343    2.7657   24.9748 H   0  0  0  0  0  0  0  0  0  0  0  0
    4.6560    2.6223   26.5763 H   0  0  0  0  0  0  0  0  0  0  0  0
    2.6910    1.0306   27.0654 H   0  0  0  0  0  0  0  0  0  0  0  0
   -1.0553    3.2185   26.7567 H   0  0  0  0  0  0  0  0  0  0  0  0
   -2.7781    1.7832   27.8303 H   0  0  0  0  0  0  0  0  0  0  0  0
   -2.0803   -0.3709   28.9023 H   0  0  0  0  0  0  0  0  0  0  0  0
    0.3414   -0.9662   28.9099 H   0  0  0  0  0  0  0  0  0  0  0  0
    6.3671   -0.8501   18.2994 H   0  0  0  0  0  0  0  0  0  0  0  0
  1  2  1  0
  2  3  1  0
  3  4  2  0
  4  5  1  0
  5  6  2  0
  6  7  1  0
  7  8  1  0
  8  9  2  0
  8 10  1  0
 10 11  1  0
 11 12  1  0
 11 13  1  0
 13 14  1  0
 14 15  1  0
 15 16  2  0
 15 17  1  0
 17 18  2  0
 18 19  1  0
 19 20  2  0
 20 21  1  0
 21 22  2  0
  6 23  1  0
 23  3  1  0
 22 17  1  0
  1 24  1  0
  1 25  1  0
  1 26  1  0
  2 27  1  0
  2 28  1  0
  4 29  1  0
  7 30  1  0
  7 31  1  0
 10 32  1  0
 11 33  1  0
 12 34  1  0
 12 35  1  0
 12 36  1  0
 13 37  1  0
 13 38  1  0
 14 39  1  0
 18 40  1  0
 19 41  1  0
 20 42  1  0
 21 43  1  0
 23 44  1  0
M  END
>  <Energy>  (492) 
325.71960132506837

>  <compound_id>  (492) 
9625

>  <target_id>  (492) 
1

>  <reference_id>  (492) 
59

>  <inspiration_ids>  (492) 
[80, 59]

>  <energy_score>  (492) 
240.08933684164333

>  <distance_score>  (492) 
9.011650879992086

>  <path>  (492) 
/opt/xchem-fragalysis-2/maxwin/BulkDock/SCRATCH/511022/C9625-P59/C9625-P59.minimised.mol

>  <scratch_subdir>  (492) 
/opt/xchem-fragalysis-2/maxwin/BulkDock/SCRATCH/511022/C9625-P59

>  <fragmenstein_runtime>  (492) 
13.94080638885498

>  <fragmenstein_outcome>  (492) 
too moved

>  <fragmenstein_mode>  (492) 
expansion

>  <fragmenstein_error>  (492) 


$$$$
C11895-P80
     RDKit          3D

 44 45  0  0  0  0  0  0  0  0999 V2000
    7.5070    0.3469   18.2099 C   0  0  0  0  0  0  0  0  0  0  0  0
    7.2219   -0.1669   19.8514 C   0  0  0  0  0  0  0  0  0  0  0  0
    5.9901   -0.3185   21.1274 C   0  0  0  0  0  0  0  0  0  0  0  0
    4.8388    0.2446   21.9216 C   0  0  0  0  0  0  0  0  0  0  0  0
    4.9296   -0.2906   23.5082 N   0  0  0  0  0  0  0  0  0  0  0  0
    4.9657   -1.5751   23.4233 C   0  0  0  0  0  0  0  0  0  0  0  0
    4.1857   -2.2630   24.5285 C   0  0  0  0  0  0  0  0  0  0  0  0
    4.3003   -1.6658   25.9807 C   0  0  0  0  0  0  0  0  0  0  0  0
    5.2625   -1.0513   26.3402 O   0  0  0  0  0  0  0  0  0  0  0  0
    3.1189   -2.0975   26.7211 N   0  0  0  0  0  0  0  0  0  0  0  0
    2.7927   -2.0003   28.1373 C   0  0  0  0  0  0  0  0  0  0  0  0
    1.4023   -2.5768   28.4524 C   0  0  0  0  0  0  0  0  0  0  0  0
    3.0098   -0.5996   28.7352 C   0  0  0  0  0  0  0  0  0  0  0  0
    1.9254    0.3042   28.4586 N   0  0  0  0  0  0  0  0  0  0  0  0
    0.6828    0.5040   29.1247 C   0  0  0  0  0  0  0  0  0  0  0  0
    0.2505    0.0288   30.1323 O   0  0  0  0  0  0  0  0  0  0  0  0
   -0.1827    1.4596   28.4285 C   0  0  0  0  0  0  0  0  0  0  0  0
   -1.4249    1.0597   27.9412 C   0  0  0  0  0  0  0  0  0  0  0  0
   -2.2129    2.0044   27.2957 C   0  0  0  0  0  0  0  0  0  0  0  0
   -1.7306    3.3003   27.1818 C   0  0  0  0  0  0  0  0  0  0  0  0
   -0.5246    3.6991   27.6419 N   0  0  0  0  0  0  0  0  0  0  0  0
    0.2218    2.7735   28.2762 C   0  0  0  0  0  0  0  0  0  0  0  0
    5.4637   -1.7622   21.9645 N   0  0  0  0  0  0  0  0  0  0  0  0
    7.1191   -0.2217   17.3493 H   0  0  0  0  0  0  0  0  0  0  0  0
    7.3071    1.4276   18.1305 H   0  0  0  0  0  0  0  0  0  0  0  0
    8.5263    0.2639   17.8083 H   0  0  0  0  0  0  0  0  0  0  0  0
    7.6666    0.6544   20.4145 H   0  0  0  0  0  0  0  0  0  0  0  0
    7.8764   -0.9525   19.9696 H   0  0  0  0  0  0  0  0  0  0  0  0
    4.0257    0.9393   21.8026 H   0  0  0  0  0  0  0  0  0  0  0  0
    4.3297   -3.3061   24.7314 H   0  0  0  0  0  0  0  0  0  0  0  0
    3.1604   -2.1957   24.2040 H   0  0  0  0  0  0  0  0  0  0  0  0
    2.4602   -2.5280   26.0749 H   0  0  0  0  0  0  0  0  0  0  0  0
    3.5342   -2.6500   28.6196 H   0  0  0  0  0  0  0  0  0  0  0  0
    1.3503   -3.6252   28.1397 H   0  0  0  0  0  0  0  0  0  0  0  0
    0.6113   -2.0449   27.9156 H   0  0  0  0  0  0  0  0  0  0  0  0
    1.1945   -2.5392   29.5261 H   0  0  0  0  0  0  0  0  0  0  0  0
    3.9337   -0.1343   28.3820 H   0  0  0  0  0  0  0  0  0  0  0  0
    3.0712   -0.6891   29.8260 H   0  0  0  0  0  0  0  0  0  0  0  0
    1.9835    0.9394   27.6686 H   0  0  0  0  0  0  0  0  0  0  0  0
   -1.7668    0.0378   28.0745 H   0  0  0  0  0  0  0  0  0  0  0  0
   -3.1949    1.7628   26.9091 H   0  0  0  0  0  0  0  0  0  0  0  0
   -2.3273    4.0818   26.7173 H   0  0  0  0  0  0  0  0  0  0  0  0
    1.1699    3.1325   28.6661 H   0  0  0  0  0  0  0  0  0  0  0  0
    5.5840   -2.6150   21.4305 H   0  0  0  0  0  0  0  0  0  0  0  0
  1  2  1  0
  2  3  1  0
  3  4  2  0
  4  5  1  0
  5  6  2  0
  6  7  1  0
  7  8  1  0
  8  9  2  0
  8 10  1  0
 10 11  1  0
 11 12  1  0
 11 13  1  0
 13 14  1  0
 14 15  1  0
 15 16  2  0
 15 17  1  0
 17 18  2  0
 18 19  1  0
 19 20  2  0
 20 21  1  0
 21 22  2  0
  6 23  1  0
 23  3  1  0
 22 17  1  0
  1 24  1  0
  1 25  1  0
  1 26  1  0
  2 27  1  0
  2 28  1  0
  4 29  1  0
  7 30  1  0
  7 31  1  0
 10 32  1  0
 11 33  1  0
 12 34  1  0
 12 35  1  0
 12 36  1  0
 13 37  1  0
 13 38  1  0
 14 39  1  0
 18 40  1  0
 19 41  1  0
 20 42  1  0
 22 43  1  0
 23 44  1  0
M  END
>  <Energy>  (493) 
271.31076955829923

>  <compound_id>  (493) 
11895

>  <target_id>  (493) 
1

>  <reference_id>  (493) 
80

>  <inspiration_ids>  (493) 
[80, 59]

>  <energy_score>  (493) 
211.7889009472899

>  <distance_score>  (493) 
8.324183222697288

>  <path>  (493) 
/opt/xchem-fragalysis-2/maxwin/BulkDock/SCRATCH/511022/C11895-P80/C11895-P80.minimised.mol

>  <scratch_subdir>  (493) 
/opt/xchem-fragalysis-2/maxwin/BulkDock/SCRATCH/511022/C11895-P80

>  <fragmenstein_runtime>  (493) 
21.472562074661255

>  <fragmenstein_outcome>  (493) 
too moved

>  <fragmenstein_mode>  (493) 
expansion

>  <fragmenstein_error>  (493) 


$$$$
C11895-P59
     RDKit          3D

 44 45  0  0  0  0  0  0  0  0999 V2000
    9.0219    1.4866   15.6914 C   0  0  0  0  0  0  0  0  0  0  0  0
    8.3590    0.3027   16.3784 C   0  0  0  0  0  0  0  0  0  0  0  0
    7.8288    0.6404   17.7361 C   0  0  0  0  0  0  0  0  0  0  0  0
    8.2113    1.5740   18.6447 C   0  0  0  0  0  0  0  0  0  0  0  0
    7.5760    1.3437   19.8284 N   0  0  0  0  0  0  0  0  0  0  0  0
    6.7300    0.2236   19.7846 C   0  0  0  0  0  0  0  0  0  0  0  0
    5.4806   -0.6432   21.1620 C   0  0  0  0  0  0  0  0  0  0  0  0
    4.9353   -0.7042   23.0673 C   0  0  0  0  0  0  0  0  0  0  0  0
    4.7257   -1.8381   23.4273 O   0  0  0  0  0  0  0  0  0  0  0  0
    4.9391    0.5884   23.8597 N   0  0  0  0  0  0  0  0  0  0  0  0
    4.7081    0.8434   25.3020 C   0  0  0  0  0  0  0  0  0  0  0  0
    4.3956   -0.3981   26.1501 C   0  0  0  0  0  0  0  0  0  0  0  0
    3.6852    2.0001   25.5516 C   0  0  0  0  0  0  0  0  0  0  0  0
    2.7456    1.7749   26.6460 N   0  0  0  0  0  0  0  0  0  0  0  0
    1.3593    2.1023   26.7747 C   0  0  0  0  0  0  0  0  0  0  0  0
    0.6313    2.7152   26.0520 O   0  0  0  0  0  0  0  0  0  0  0  0
    0.7305    1.4791   27.9688 C   0  0  0  0  0  0  0  0  0  0  0  0
   -0.3264    0.5810   27.7937 C   0  0  0  0  0  0  0  0  0  0  0  0
   -0.8653   -0.0723   28.8972 C   0  0  0  0  0  0  0  0  0  0  0  0
   -0.3307    0.2088   30.1428 C   0  0  0  0  0  0  0  0  0  0  0  0
    0.6714    1.0938   30.3544 N   0  0  0  0  0  0  0  0  0  0  0  0
    1.1755    1.7183   29.2589 C   0  0  0  0  0  0  0  0  0  0  0  0
    6.7591    0.0214   18.3576 N   0  0  0  0  0  0  0  0  0  0  0  0
    9.9335    1.7874   16.2184 H   0  0  0  0  0  0  0  0  0  0  0  0
    9.3061    1.2214   14.6682 H   0  0  0  0  0  0  0  0  0  0  0  0
    8.3586    2.3561   15.6573 H   0  0  0  0  0  0  0  0  0  0  0  0
    7.5555   -0.1059   15.7622 H   0  0  0  0  0  0  0  0  0  0  0  0
    9.1078   -0.4917   16.4573 H   0  0  0  0  0  0  0  0  0  0  0  0
    8.9461    2.3648   18.5485 H   0  0  0  0  0  0  0  0  0  0  0  0
    4.7108    0.1904   21.1226 H   0  0  0  0  0  0  0  0  0  0  0  0
    5.5489   -1.7465   20.8845 H   0  0  0  0  0  0  0  0  0  0  0  0
    5.0684    1.3560   23.2348 H   0  0  0  0  0  0  0  0  0  0  0  0
    5.6795    1.2130   25.6533 H   0  0  0  0  0  0  0  0  0  0  0  0
    5.0559   -1.2320   25.8945 H   0  0  0  0  0  0  0  0  0  0  0  0
    4.5555   -0.1898   27.2137 H   0  0  0  0  0  0  0  0  0  0  0  0
    3.3647   -0.7165   26.0253 H   0  0  0  0  0  0  0  0  0  0  0  0
    4.2295    2.9211   25.7892 H   0  0  0  0  0  0  0  0  0  0  0  0
    3.0996    2.2066   24.6491 H   0  0  0  0  0  0  0  0  0  0  0  0
    3.0557    1.3128   27.4925 H   0  0  0  0  0  0  0  0  0  0  0  0
   -0.7185    0.3776   26.8014 H   0  0  0  0  0  0  0  0  0  0  0  0
   -1.6745   -0.7849   28.7794 H   0  0  0  0  0  0  0  0  0  0  0  0
   -0.7098   -0.2804   31.0356 H   0  0  0  0  0  0  0  0  0  0  0  0
    1.9695    2.4313   29.4611 H   0  0  0  0  0  0  0  0  0  0  0  0
    6.0842   -0.6169   17.9610 H   0  0  0  0  0  0  0  0  0  0  0  0
  1  2  1  0
  2  3  1  0
  3  4  2  0
  4  5  1  0
  5  6  2  0
  6  7  1  0
  7  8  1  0
  8  9  2  0
  8 10  1  0
 10 11  1  0
 11 12  1  0
 11 13  1  0
 13 14  1  0
 14 15  1  0
 15 16  2  0
 15 17  1  0
 17 18  2  0
 18 19  1  0
 19 20  2  0
 20 21  1  0
 21 22  2  0
  6 23  1  0
 23  3  1  0
 22 17  1  0
  1 24  1  0
  1 25  1  0
  1 26  1  0
  2 27  1  0
  2 28  1  0
  4 29  1  0
  7 30  1  0
  7 31  1  0
 10 32  1  0
 11 33  1  0
 12 34  1  0
 12 35  1  0
 12 36  1  0
 13 37  1  0
 13 38  1  0
 14 39  1  0
 18 40  1  0
 19 41  1  0
 20 42  1  0
 22 43  1  0
 23 44  1  0
M  END
>  <Energy>  (494) 
253.81808720999493

>  <compound_id>  (494) 
11895

>  <target_id>  (494) 
1

>  <reference_id>  (494) 
59

>  <inspiration_ids>  (494) 
[80, 59]

>  <energy_score>  (494) 
194.2962185989876

>  <distance_score>  (494) 
8.835694622668305

>  <path>  (494) 
/opt/xchem-fragalysis-2/maxwin/BulkDock/SCRATCH/511022/C11895-P59/C11895-P59.minimised.mol

>  <scratch_subdir>  (494) 
/opt/xchem-fragalysis-2/maxwin/BulkDock/SCRATCH/511022/C11895-P59

>  <fragmenstein_runtime>  (494) 
21.425949811935425

>  <fragmenstein_outcome>  (494) 
too moved

>  <fragmenstein_mode>  (494) 
expansion

>  <fragmenstein_error>  (494) 


$$$$
C8990-P80
     RDKit          3D

 41 42  0  0  0  0  0  0  0  0999 V2000
    8.5962    2.4168   16.8919 C   0  0  0  0  0  0  0  0  0  0  0  0
    7.5389    2.5430   17.9906 C   0  0  0  0  0  0  0  0  0  0  0  0
    7.3352    1.2749   18.8656 C   0  0  0  0  0  0  0  0  0  0  0  0
    7.5382   -0.0337   18.4750 C   0  0  0  0  0  0  0  0  0  0  0  0
    7.6530   -0.9271   19.5879 N   0  0  0  0  0  0  0  0  0  0  0  0
    6.9505   -0.5273   20.6644 C   0  0  0  0  0  0  0  0  0  0  0  0
    5.5536   -1.4520   21.8218 C   0  0  0  0  0  0  0  0  0  0  0  0
    5.2514   -1.5155   23.7989 C   0  0  0  0  0  0  0  0  0  0  0  0
    5.6199   -2.5393   24.2266 O   0  0  0  0  0  0  0  0  0  0  0  0
    4.6220   -0.4413   24.4589 N   0  0  0  0  0  0  0  0  0  0  0  0
    4.1404   -0.3003   25.8522 C   0  0  0  0  0  0  0  0  0  0  0  0
    5.0990    0.2690   26.8969 C   0  0  0  0  0  0  0  0  0  0  0  0
    3.5623   -1.6159   26.4299 C   0  0  0  0  0  0  0  0  0  0  0  0
    2.4661   -1.3556   27.3489 N   0  0  0  0  0  0  0  0  0  0  0  0
    1.6594   -2.2407   28.1130 C   0  0  0  0  0  0  0  0  0  0  0  0
    1.7218   -3.4254   28.2608 O   0  0  0  0  0  0  0  0  0  0  0  0
    0.6201   -1.4567   28.8187 C   0  0  0  0  0  0  0  0  0  0  0  0
   -0.3902   -2.0113   29.5848 C   0  0  0  0  0  0  0  0  0  0  0  0
   -1.3706   -0.7800   30.2595 S   0  0  0  0  0  0  0  0  0  0  0  0
   -0.4098    0.3990   29.4729 C   0  0  0  0  0  0  0  0  0  0  0  0
    0.5931   -0.0531   28.7548 N   0  0  0  0  0  0  0  0  0  0  0  0
    7.5599    0.8925   20.4814 N   0  0  0  0  0  0  0  0  0  0  0  0
    9.6033    2.2492   17.2713 H   0  0  0  0  0  0  0  0  0  0  0  0
    8.3696    1.5957   16.2085 H   0  0  0  0  0  0  0  0  0  0  0  0
    8.6221    3.3373   16.2984 H   0  0  0  0  0  0  0  0  0  0  0  0
    6.6383    2.8110   17.4490 H   0  0  0  0  0  0  0  0  0  0  0  0
    7.6706    3.4645   18.5526 H   0  0  0  0  0  0  0  0  0  0  0  0
    7.8134   -0.2201   17.4396 H   0  0  0  0  0  0  0  0  0  0  0  0
    5.5312   -2.4737   21.4132 H   0  0  0  0  0  0  0  0  0  0  0  0
    4.8188   -0.6311   21.7965 H   0  0  0  0  0  0  0  0  0  0  0  0
    4.3618    0.2594   23.7687 H   0  0  0  0  0  0  0  0  0  0  0  0
    3.3272    0.4289   25.7625 H   0  0  0  0  0  0  0  0  0  0  0  0
    5.4788    1.2536   26.6164 H   0  0  0  0  0  0  0  0  0  0  0  0
    5.9641   -0.3884   27.0360 H   0  0  0  0  0  0  0  0  0  0  0  0
    4.6063    0.3828   27.8687 H   0  0  0  0  0  0  0  0  0  0  0  0
    4.3182   -2.1845   26.9811 H   0  0  0  0  0  0  0  0  0  0  0  0
    3.1968   -2.2779   25.6470 H   0  0  0  0  0  0  0  0  0  0  0  0
    2.1676   -0.4004   27.5267 H   0  0  0  0  0  0  0  0  0  0  0  0
   -0.5770   -3.0598   29.7690 H   0  0  0  0  0  0  0  0  0  0  0  0
   -0.6207    1.4564   29.5665 H   0  0  0  0  0  0  0  0  0  0  0  0
    7.4909    1.6441   21.1592 H   0  0  0  0  0  0  0  0  0  0  0  0
  1  2  1  0
  2  3  1  0
  3  4  2  0
  4  5  1  0
  5  6  2  0
  6  7  1  0
  7  8  1  0
  8  9  2  0
  8 10  1  0
 10 11  1  0
 11 12  1  0
 11 13  1  0
 13 14  1  0
 14 15  1  0
 15 16  2  0
 15 17  1  0
 17 18  2  0
 18 19  1  0
 19 20  1  0
 20 21  2  0
  6 22  1  0
 22  3  1  0
 21 17  1  0
  1 23  1  0
  1 24  1  0
  1 25  1  0
  2 26  1  0
  2 27  1  0
  4 28  1  0
  7 29  1  0
  7 30  1  0
 10 31  1  0
 11 32  1  0
 12 33  1  0
 12 34  1  0
 12 35  1  0
 13 36  1  0
 13 37  1  0
 14 38  1  0
 18 39  1  0
 20 40  1  0
 22 41  1  0
M  END
>  <Energy>  (495) 
276.9713774050195

>  <compound_id>  (495) 
8990

>  <target_id>  (495) 
1

>  <reference_id>  (495) 
80

>  <inspiration_ids>  (495) 
[80, 59]

>  <energy_score>  (495) 
169.58293547712282

>  <distance_score>  (495) 
8.633489291774007

>  <path>  (495) 
/opt/xchem-fragalysis-2/maxwin/BulkDock/SCRATCH/511022/C8990-P80/C8990-P80.minimised.mol

>  <scratch_subdir>  (495) 
/opt/xchem-fragalysis-2/maxwin/BulkDock/SCRATCH/511022/C8990-P80

>  <fragmenstein_runtime>  (495) 
16.740582942962646

>  <fragmenstein_outcome>  (495) 
too moved

>  <fragmenstein_mode>  (495) 
expansion

>  <fragmenstein_error>  (495) 


$$$$
C8990-P59
     RDKit          3D

 41 42  0  0  0  0  0  0  0  0999 V2000
    6.2694    0.4354   20.1209 C   0  0  0  0  0  0  0  0  0  0  0  0
    4.6208    0.6363   21.3116 C   0  0  0  0  0  0  0  0  0  0  0  0
    4.6474    1.4018   23.0662 C   0  0  0  0  0  0  0  0  0  0  0  0
    4.8637    0.8577   24.3316 C   0  0  0  0  0  0  0  0  0  0  0  0
    4.5841    1.7635   25.3162 N   0  0  0  0  0  0  0  0  0  0  0  0
    4.0061    2.7806   24.7198 C   0  0  0  0  0  0  0  0  0  0  0  0
    3.4382    4.0065   25.3524 C   0  0  0  0  0  0  0  0  0  0  0  0
    3.0219    3.7748   26.8133 C   0  0  0  0  0  0  0  0  0  0  0  0
    3.5628    4.4111   27.6733 O   0  0  0  0  0  0  0  0  0  0  0  0
    1.9279    2.8414   26.8826 N   0  0  0  0  0  0  0  0  0  0  0  0
    1.2021    2.3065   28.0229 C   0  0  0  0  0  0  0  0  0  0  0  0
   -0.2829    2.1066   27.6910 C   0  0  0  0  0  0  0  0  0  0  0  0
    1.8916    1.0163   28.5175 C   0  0  0  0  0  0  0  0  0  0  0  0
    1.0577    0.2623   29.4149 N   0  0  0  0  0  0  0  0  0  0  0  0
    0.4790   -1.0287   29.2867 C   0  0  0  0  0  0  0  0  0  0  0  0
    0.5984   -1.8570   28.4347 O   0  0  0  0  0  0  0  0  0  0  0  0
   -0.4635   -1.2458   30.3994 C   0  0  0  0  0  0  0  0  0  0  0  0
   -1.3819   -2.2788   30.4344 C   0  0  0  0  0  0  0  0  0  0  0  0
   -2.3222   -2.1835   31.8584 S   0  0  0  0  0  0  0  0  0  0  0  0
   -1.4509   -0.7843   32.3256 C   0  0  0  0  0  0  0  0  0  0  0  0
   -0.5304   -0.3643   31.4876 N   0  0  0  0  0  0  0  0  0  0  0  0
    3.9186    2.5555   23.3728 N   0  0  0  0  0  0  0  0  0  0  0  0
    7.0935    1.2636   20.1359 H   0  0  0  0  0  0  0  0  0  0  0  0
    6.7603   -0.5789   20.2030 H   0  0  0  0  0  0  0  0  0  0  0  0
    6.1972    0.4976   18.9761 H   0  0  0  0  0  0  0  0  0  0  0  0
    4.6647   -0.4096   21.6972 H   0  0  0  0  0  0  0  0  0  0  0  0
    3.6443    1.0484   21.1100 H   0  0  0  0  0  0  0  0  0  0  0  0
    5.1510   -0.1448   24.5999 H   0  0  0  0  0  0  0  0  0  0  0  0
    4.1920    4.8021   25.3286 H   0  0  0  0  0  0  0  0  0  0  0  0
    2.5627    4.3674   24.7998 H   0  0  0  0  0  0  0  0  0  0  0  0
    1.7884    2.4284   25.9688 H   0  0  0  0  0  0  0  0  0  0  0  0
    1.2705    3.0545   28.8225 H   0  0  0  0  0  0  0  0  0  0  0  0
   -0.7123    3.0314   27.2900 H   0  0  0  0  0  0  0  0  0  0  0  0
   -0.4136    1.3275   26.9324 H   0  0  0  0  0  0  0  0  0  0  0  0
   -0.8627    1.8297   28.5761 H   0  0  0  0  0  0  0  0  0  0  0  0
    2.8243    1.2561   29.0387 H   0  0  0  0  0  0  0  0  0  0  0  0
    2.1409    0.3685   27.6686 H   0  0  0  0  0  0  0  0  0  0  0  0
    0.7930    0.6557   30.3174 H   0  0  0  0  0  0  0  0  0  0  0  0
   -1.5340   -3.0437   29.6846 H   0  0  0  0  0  0  0  0  0  0  0  0
   -1.6585   -0.2779   33.2594 H   0  0  0  0  0  0  0  0  0  0  0  0
    3.4477    3.1380   22.6893 H   0  0  0  0  0  0  0  0  0  0  0  0
  1  2  1  0
  2  3  1  0
  3  4  2  0
  4  5  1  0
  5  6  2  0
  6  7  1  0
  7  8  1  0
  8  9  2  0
  8 10  1  0
 10 11  1  0
 11 12  1  0
 11 13  1  0
 13 14  1  0
 14 15  1  0
 15 16  2  0
 15 17  1  0
 17 18  2  0
 18 19  1  0
 19 20  1  0
 20 21  2  0
  6 22  1  0
 22  3  1  0
 21 17  1  0
  1 23  1  0
  1 24  1  0
  1 25  1  0
  2 26  1  0
  2 27  1  0
  4 28  1  0
  7 29  1  0
  7 30  1  0
 10 31  1  0
 11 32  1  0
 12 33  1  0
 12 34  1  0
 12 35  1  0
 13 36  1  0
 13 37  1  0
 14 38  1  0
 18 39  1  0
 20 40  1  0
 22 41  1  0
M  END
>  <Energy>  (496) 
166.42271651535583

>  <compound_id>  (496) 
8990

>  <target_id>  (496) 
1

>  <reference_id>  (496) 
59

>  <inspiration_ids>  (496) 
[80, 59]

>  <energy_score>  (496) 
59.03427458745739

>  <distance_score>  (496) 
9.002561395391576

>  <path>  (496) 
/opt/xchem-fragalysis-2/maxwin/BulkDock/SCRATCH/511022/C8990-P59/C8990-P59.minimised.mol

>  <scratch_subdir>  (496) 
/opt/xchem-fragalysis-2/maxwin/BulkDock/SCRATCH/511022/C8990-P59

>  <fragmenstein_runtime>  (496) 
18.73213815689087

>  <fragmenstein_outcome>  (496) 
too moved

>  <fragmenstein_mode>  (496) 
expansion

>  <fragmenstein_error>  (496) 


$$$$
C7727-P80
     RDKit          3D

 41 42  0  0  0  0  0  0  0  0999 V2000
    2.7707   -1.3612   16.1681 C   0  0  0  0  0  0  0  0  0  0  0  0
    4.0494   -1.6057   16.9928 C   0  0  0  0  0  0  0  0  0  0  0  0
    4.0339   -0.8767   18.3646 C   0  0  0  0  0  0  0  0  0  0  0  0
    2.3513   -0.7888   19.1939 C   0  0  0  0  0  0  0  0  0  0  0  0
    2.7184    0.2655   20.9952 N   0  0  0  0  0  0  0  0  0  0  0  0
    4.5111    0.2157   21.4095 C   0  0  0  0  0  0  0  0  0  0  0  0
    4.7817   -1.1143   22.9200 C   0  0  0  0  0  0  0  0  0  0  0  0
    4.4462   -0.8332   24.7418 C   0  0  0  0  0  0  0  0  0  0  0  0
    4.7111    0.2115   25.2567 O   0  0  0  0  0  0  0  0  0  0  0  0
    3.8989   -2.0656   25.3241 N   0  0  0  0  0  0  0  0  0  0  0  0
    3.6024   -2.4242   26.7271 C   0  0  0  0  0  0  0  0  0  0  0  0
    3.3238   -3.9210   26.9519 C   0  0  0  0  0  0  0  0  0  0  0  0
    2.4291   -1.7387   27.4430 C   0  0  0  0  0  0  0  0  0  0  0  0
    2.3763   -0.3301   27.6314 N   0  0  0  0  0  0  0  0  0  0  0  0
    1.8307    0.4532   28.6972 C   0  0  0  0  0  0  0  0  0  0  0  0
    1.3509    0.1219   29.7406 O   0  0  0  0  0  0  0  0  0  0  0  0
    1.7862    1.8820   28.3742 C   0  0  0  0  0  0  0  0  0  0  0  0
    2.3603    2.6376   27.3720 C   0  0  0  0  0  0  0  0  0  0  0  0
    1.9872    3.9698   27.3312 N   0  0  0  0  0  0  0  0  0  0  0  0
    1.1538    4.2244   28.3137 C   0  0  0  0  0  0  0  0  0  0  0  0
    0.7824    2.9146   29.3400 S   0  0  0  0  0  0  0  0  0  0  0  0
    5.3771    0.1683   19.5554 N   0  0  0  0  0  0  0  0  0  0  0  0
    2.5738   -0.2977   16.0014 H   0  0  0  0  0  0  0  0  0  0  0  0
    1.8923   -1.7945   16.6569 H   0  0  0  0  0  0  0  0  0  0  0  0
    2.8679   -1.8435   15.1895 H   0  0  0  0  0  0  0  0  0  0  0  0
    4.0075   -2.6764   17.1849 H   0  0  0  0  0  0  0  0  0  0  0  0
    4.8788   -1.2704   16.3632 H   0  0  0  0  0  0  0  0  0  0  0  0
    1.3259   -0.8572   18.8413 H   0  0  0  0  0  0  0  0  0  0  0  0
    3.9624   -1.8342   23.0431 H   0  0  0  0  0  0  0  0  0  0  0  0
    5.4499   -1.8966   22.6262 H   0  0  0  0  0  0  0  0  0  0  0  0
    3.7210   -2.7274   24.5863 H   0  0  0  0  0  0  0  0  0  0  0  0
    4.5152   -2.1461   27.2687 H   0  0  0  0  0  0  0  0  0  0  0  0
    2.2609   -4.1514   27.0676 H   0  0  0  0  0  0  0  0  0  0  0  0
    3.6872   -4.5441   26.1361 H   0  0  0  0  0  0  0  0  0  0  0  0
    3.8091   -4.2530   27.8772 H   0  0  0  0  0  0  0  0  0  0  0  0
    1.4784   -1.9957   26.9815 H   0  0  0  0  0  0  0  0  0  0  0  0
    2.3615   -2.1560   28.4579 H   0  0  0  0  0  0  0  0  0  0  0  0
    2.6184    0.2821   26.8622 H   0  0  0  0  0  0  0  0  0  0  0  0
    3.0551    2.2838   26.6178 H   0  0  0  0  0  0  0  0  0  0  0  0
    0.7267    5.2072   28.4711 H   0  0  0  0  0  0  0  0  0  0  0  0
    6.2505   -0.3673   19.6051 H   0  0  0  0  0  0  0  0  0  0  0  0
  1  2  1  0
  2  3  1  0
  3  4  2  0
  4  5  1  0
  5  6  2  0
  6  7  1  0
  7  8  1  0
  8  9  2  0
  8 10  1  0
 10 11  1  0
 11 12  1  0
 11 13  1  0
 13 14  1  0
 14 15  1  0
 15 16  2  0
 15 17  1  0
 17 18  2  0
 18 19  1  0
 19 20  2  0
 20 21  1  0
  6 22  1  0
 22  3  1  0
 21 17  1  0
  1 23  1  0
  1 24  1  0
  1 25  1  0
  2 26  1  0
  2 27  1  0
  4 28  1  0
  7 29  1  0
  7 30  1  0
 10 31  1  0
 11 32  1  0
 12 33  1  0
 12 34  1  0
 12 35  1  0
 13 36  1  0
 13 37  1  0
 14 38  1  0
 18 39  1  0
 20 40  1  0
 22 41  1  0
M  END
>  <Energy>  (497) 
798.26630826556936

>  <compound_id>  (497) 
7727

>  <target_id>  (497) 
1

>  <reference_id>  (497) 
80

>  <inspiration_ids>  (497) 
[80, 59]

>  <energy_score>  (497) 
747.8331510484561

>  <distance_score>  (497) 
9.269779128234495

>  <path>  (497) 
/opt/xchem-fragalysis-2/maxwin/BulkDock/SCRATCH/511022/C7727-P80/C7727-P80.minimised.mol

>  <scratch_subdir>  (497) 
/opt/xchem-fragalysis-2/maxwin/BulkDock/SCRATCH/511022/C7727-P80

>  <fragmenstein_runtime>  (497) 
13.981303691864014

>  <fragmenstein_outcome>  (497) 
too moved

>  <fragmenstein_mode>  (497) 
expansion

>  <fragmenstein_error>  (497) 


$$$$
C7727-P59
     RDKit          3D

 41 42  0  0  0  0  0  0  0  0999 V2000
    7.8313    1.1512   19.1690 C   0  0  0  0  0  0  0  0  0  0  0  0
    7.2079   -0.2348   19.3717 C   0  0  0  0  0  0  0  0  0  0  0  0
    6.3323   -1.1592   20.6794 C   0  0  0  0  0  0  0  0  0  0  0  0
    5.7136   -2.5139   20.7906 C   0  0  0  0  0  0  0  0  0  0  0  0
    5.3402   -2.7718   22.1628 N   0  0  0  0  0  0  0  0  0  0  0  0
    4.8616   -1.7100   22.8939 C   0  0  0  0  0  0  0  0  0  0  0  0
    4.7414   -1.6281   24.4259 C   0  0  0  0  0  0  0  0  0  0  0  0
    4.3896   -0.2959   25.1439 C   0  0  0  0  0  0  0  0  0  0  0  0
    4.6912    0.7707   24.6882 O   0  0  0  0  0  0  0  0  0  0  0  0
    3.6467   -0.6380   26.3568 N   0  0  0  0  0  0  0  0  0  0  0  0
    2.9628    0.2062   27.3302 C   0  0  0  0  0  0  0  0  0  0  0  0
    3.1479    1.7069   27.1981 C   0  0  0  0  0  0  0  0  0  0  0  0
    3.2589   -0.2630   28.7734 C   0  0  0  0  0  0  0  0  0  0  0  0
    2.0556   -0.7289   29.4248 N   0  0  0  0  0  0  0  0  0  0  0  0
    1.2321   -1.8674   29.1691 C   0  0  0  0  0  0  0  0  0  0  0  0
    1.3698   -2.7724   28.4003 O   0  0  0  0  0  0  0  0  0  0  0  0
    0.0336   -1.8586   30.0163 C   0  0  0  0  0  0  0  0  0  0  0  0
   -1.0973   -2.6396   29.8642 C   0  0  0  0  0  0  0  0  0  0  0  0
   -2.0767   -2.4962   30.8322 N   0  0  0  0  0  0  0  0  0  0  0  0
   -1.6965   -1.5728   31.6858 C   0  0  0  0  0  0  0  0  0  0  0  0
   -0.1741   -0.8462   31.3904 S   0  0  0  0  0  0  0  0  0  0  0  0
    4.9957   -0.7421   21.7942 N   0  0  0  0  0  0  0  0  0  0  0  0
    7.2112    1.8874   18.6622 H   0  0  0  0  0  0  0  0  0  0  0  0
    8.6193    1.0297   18.4109 H   0  0  0  0  0  0  0  0  0  0  0  0
    8.3293    1.5910   20.0241 H   0  0  0  0  0  0  0  0  0  0  0  0
    6.7522   -0.4426   18.4155 H   0  0  0  0  0  0  0  0  0  0  0  0
    8.1359   -0.7618   19.3876 H   0  0  0  0  0  0  0  0  0  0  0  0
    5.5108   -3.2651   20.0358 H   0  0  0  0  0  0  0  0  0  0  0  0
    5.6796   -1.9483   24.8960 H   0  0  0  0  0  0  0  0  0  0  0  0
    4.1115   -2.4561   24.7368 H   0  0  0  0  0  0  0  0  0  0  0  0
    3.6494   -1.6455   26.4752 H   0  0  0  0  0  0  0  0  0  0  0  0
    1.9024    0.0207   27.1167 H   0  0  0  0  0  0  0  0  0  0  0  0
    2.8349    2.0556   26.2085 H   0  0  0  0  0  0  0  0  0  0  0  0
    4.1986    1.9866   27.3303 H   0  0  0  0  0  0  0  0  0  0  0  0
    2.5528    2.2456   27.9431 H   0  0  0  0  0  0  0  0  0  0  0  0
    3.9667   -1.0991   28.7808 H   0  0  0  0  0  0  0  0  0  0  0  0
    3.6701    0.5403   29.3930 H   0  0  0  0  0  0  0  0  0  0  0  0
    1.6685   -0.2105   30.2060 H   0  0  0  0  0  0  0  0  0  0  0  0
   -1.2473   -3.3441   29.0538 H   0  0  0  0  0  0  0  0  0  0  0  0
   -2.3056   -1.2879   32.5342 H   0  0  0  0  0  0  0  0  0  0  0  0
    4.4677    0.1332   21.7734 H   0  0  0  0  0  0  0  0  0  0  0  0
  1  2  1  0
  2  3  1  0
  3  4  2  0
  4  5  1  0
  5  6  2  0
  6  7  1  0
  7  8  1  0
  8  9  2  0
  8 10  1  0
 10 11  1  0
 11 12  1  0
 11 13  1  0
 13 14  1  0
 14 15  1  0
 15 16  2  0
 15 17  1  0
 17 18  2  0
 18 19  1  0
 19 20  2  0
 20 21  1  0
  6 22  1  0
 22  3  1  0
 21 17  1  0
  1 23  1  0
  1 24  1  0
  1 25  1  0
  2 26  1  0
  2 27  1  0
  4 28  1  0
  7 29  1  0
  7 30  1  0
 10 31  1  0
 11 32  1  0
 12 33  1  0
 12 34  1  0
 12 35  1  0
 13 36  1  0
 13 37  1  0
 14 38  1  0
 18 39  1  0
 20 40  1  0
 22 41  1  0
M  END
>  <Energy>  (498) 
176.65975519156723

>  <compound_id>  (498) 
7727

>  <target_id>  (498) 
1

>  <reference_id>  (498) 
59

>  <inspiration_ids>  (498) 
[80, 59]

>  <energy_score>  (498) 
126.2265979744526

>  <distance_score>  (498) 
8.382002451423547

>  <path>  (498) 
/opt/xchem-fragalysis-2/maxwin/BulkDock/SCRATCH/511022/C7727-P59/C7727-P59.minimised.mol

>  <scratch_subdir>  (498) 
/opt/xchem-fragalysis-2/maxwin/BulkDock/SCRATCH/511022/C7727-P59

>  <fragmenstein_runtime>  (498) 
9.991785287857056

>  <fragmenstein_outcome>  (498) 
too moved

>  <fragmenstein_mode>  (498) 
expansion

>  <fragmenstein_error>  (498) 


$$$$
C11944-P80
     RDKit          3D

 41 42  0  0  0  0  0  0  0  0999 V2000
    3.5974   -2.2917   26.0874 C   0  0  0  0  0  0  0  0  0  0  0  0
    4.7765   -1.4309   25.6471 C   0  0  0  0  0  0  0  0  0  0  0  0
    4.7426   -0.1019   26.4785 C   0  0  0  0  0  0  0  0  0  0  0  0
    3.4245    0.2942   26.9287 N   0  0  0  0  0  0  0  0  0  0  0  0
    2.7714    0.1161   28.1882 C   0  0  0  0  0  0  0  0  0  0  0  0
    3.1734   -0.3342   29.2205 O   0  0  0  0  0  0  0  0  0  0  0  0
    1.3282    0.4628   28.1624 C   0  0  0  0  0  0  0  0  0  0  0  0
    0.8635    1.7193   27.7985 C   0  0  0  0  0  0  0  0  0  0  0  0
   -0.5087    1.9042   27.7724 C   0  0  0  0  0  0  0  0  0  0  0  0
   -1.4098    0.9347   28.0569 N   0  0  0  0  0  0  0  0  0  0  0  0
   -0.9219   -0.2692   28.4227 C   0  0  0  0  0  0  0  0  0  0  0  0
    0.4263   -0.5493   28.5003 C   0  0  0  0  0  0  0  0  0  0  0  0
    5.1504   -1.5470   24.1753 N   0  0  0  0  0  0  0  0  0  0  0  0
    4.5142   -2.2552   23.0566 C   0  0  0  0  0  0  0  0  0  0  0  0
    3.4570   -2.8545   23.0774 O   0  0  0  0  0  0  0  0  0  0  0  0
    5.4692   -2.5149   21.1382 C   0  0  0  0  0  0  0  0  0  0  0  0
    5.6385   -2.4132   18.9882 C   0  0  0  0  0  0  0  0  0  0  0  0
    5.1706   -1.5356   17.7683 N   0  0  0  0  0  0  0  0  0  0  0  0
    6.4612   -1.0196   16.6570 C   0  0  0  0  0  0  0  0  0  0  0  0
    7.4917   -0.3843   17.2819 C   0  0  0  0  0  0  0  0  0  0  0  0
    6.7657   -0.8809   18.7906 N   0  0  0  0  0  0  0  0  0  0  0  0
    7.5091   -0.4790   19.9178 C   0  0  0  0  0  0  0  0  0  0  0  0
    2.6632   -1.7497   25.9944 H   0  0  0  0  0  0  0  0  0  0  0  0
    3.5293   -3.1788   25.4718 H   0  0  0  0  0  0  0  0  0  0  0  0
    3.6991   -2.5918   27.1353 H   0  0  0  0  0  0  0  0  0  0  0  0
    5.6833   -1.8582   26.0729 H   0  0  0  0  0  0  0  0  0  0  0  0
    5.2527    0.7403   26.0508 H   0  0  0  0  0  0  0  0  0  0  0  0
    5.2924   -0.3041   27.4093 H   0  0  0  0  0  0  0  0  0  0  0  0
    2.7518    0.6292   26.2532 H   0  0  0  0  0  0  0  0  0  0  0  0
    1.5398    2.5304   27.5569 H   0  0  0  0  0  0  0  0  0  0  0  0
   -0.9391    2.8686   27.5103 H   0  0  0  0  0  0  0  0  0  0  0  0
   -1.6654   -1.0297   28.6441 H   0  0  0  0  0  0  0  0  0  0  0  0
    0.7745   -1.5378   28.7815 H   0  0  0  0  0  0  0  0  0  0  0  0
    5.9147   -1.1139   23.8519 H   0  0  0  0  0  0  0  0  0  0  0  0
    5.8530   -1.5474   21.4158 H   0  0  0  0  0  0  0  0  0  0  0  0
    6.2735   -3.1414   21.1344 H   0  0  0  0  0  0  0  0  0  0  0  0
    6.5560   -1.4827   15.6757 H   0  0  0  0  0  0  0  0  0  0  0  0
    8.4372    0.1299   17.2815 H   0  0  0  0  0  0  0  0  0  0  0  0
    7.2938   -1.0495   20.7525 H   0  0  0  0  0  0  0  0  0  0  0  0
    8.4783   -0.7542   19.6242 H   0  0  0  0  0  0  0  0  0  0  0  0
    7.4793    0.5489   20.1837 H   0  0  0  0  0  0  0  0  0  0  0  0
  1  2  1  0
  2  3  1  0
  3  4  1  0
  4  5  1  0
  5  6  2  0
  5  7  1  0
  7  8  2  0
  8  9  1  0
  9 10  2  0
 10 11  1  0
 11 12  2  0
  2 13  1  0
 13 14  1  0
 14 15  2  0
 14 16  1  0
 16 17  1  0
 17 18  2  0
 18 19  1  0
 19 20  2  0
 20 21  1  0
 21 22  1  0
 12  7  1  0
 21 17  1  0
  1 23  1  0
  1 24  1  0
  1 25  1  0
  2 26  1  0
  3 27  1  0
  3 28  1  0
  4 29  1  0
  8 30  1  0
  9 31  1  0
 11 32  1  0
 12 33  1  0
 13 34  1  0
 16 35  1  0
 16 36  1  0
 19 37  1  0
 20 38  1  0
 22 39  1  0
 22 40  1  0
 22 41  1  0
M  END
>  <Energy>  (499) 
610.87771951851948

>  <compound_id>  (499) 
11944

>  <target_id>  (499) 
1

>  <reference_id>  (499) 
80

>  <inspiration_ids>  (499) 
[80, 59]

>  <energy_score>  (499) 
568.6013385358875

>  <distance_score>  (499) 
8.721673809114398

>  <path>  (499) 
/opt/xchem-fragalysis-2/maxwin/BulkDock/SCRATCH/511022/C11944-P80/C11944-P80.minimised.mol

>  <scratch_subdir>  (499) 
/opt/xchem-fragalysis-2/maxwin/BulkDock/SCRATCH/511022/C11944-P80

>  <fragmenstein_runtime>  (499) 
16.627488613128662

>  <fragmenstein_outcome>  (499) 
too moved

>  <fragmenstein_mode>  (499) 
expansion

>  <fragmenstein_error>  (499) 


$$$$
C11944-P59
     RDKit          3D

 41 42  0  0  0  0  0  0  0  0999 V2000
   -0.7994    4.3812   28.0407 C   0  0  0  0  0  0  0  0  0  0  0  0
   -0.1379    3.0538   28.3794 C   0  0  0  0  0  0  0  0  0  0  0  0
   -0.9009    1.9214   27.6663 C   0  0  0  0  0  0  0  0  0  0  0  0
   -0.5914    0.6380   28.2346 N   0  0  0  0  0  0  0  0  0  0  0  0
   -1.2767   -0.1432   29.2099 C   0  0  0  0  0  0  0  0  0  0  0  0
   -2.3293    0.0302   29.7517 O   0  0  0  0  0  0  0  0  0  0  0  0
   -0.5620   -1.3938   29.6130 C   0  0  0  0  0  0  0  0  0  0  0  0
   -0.8577   -1.9371   30.8661 C   0  0  0  0  0  0  0  0  0  0  0  0
   -0.2222   -3.1029   31.2409 C   0  0  0  0  0  0  0  0  0  0  0  0
    0.6634   -3.7543   30.4603 N   0  0  0  0  0  0  0  0  0  0  0  0
    0.9365   -3.2054   29.2586 C   0  0  0  0  0  0  0  0  0  0  0  0
    0.3467   -2.0495   28.7866 C   0  0  0  0  0  0  0  0  0  0  0  0
    1.2949    3.1042   28.0591 N   0  0  0  0  0  0  0  0  0  0  0  0
    2.2378    2.0478   27.7549 C   0  0  0  0  0  0  0  0  0  0  0  0
    2.0705    0.8695   27.6092 O   0  0  0  0  0  0  0  0  0  0  0  0
    3.6574    2.6644   27.6078 C   0  0  0  0  0  0  0  0  0  0  0  0
    4.5189    1.8145   26.7222 C   0  0  0  0  0  0  0  0  0  0  0  0
    5.4928    1.0117   27.1164 N   0  0  0  0  0  0  0  0  0  0  0  0
    5.7708    0.2172   26.0413 C   0  0  0  0  0  0  0  0  0  0  0  0
    5.0246    0.6151   24.9626 C   0  0  0  0  0  0  0  0  0  0  0  0
    4.3510    1.7237   25.3633 N   0  0  0  0  0  0  0  0  0  0  0  0
    3.5608    2.6004   24.5382 C   0  0  0  0  0  0  0  0  0  0  0  0
   -0.3522    5.1978   28.6175 H   0  0  0  0  0  0  0  0  0  0  0  0
   -0.6630    4.6243   26.9804 H   0  0  0  0  0  0  0  0  0  0  0  0
   -1.8748    4.3606   28.2380 H   0  0  0  0  0  0  0  0  0  0  0  0
   -0.1865    2.9012   29.4636 H   0  0  0  0  0  0  0  0  0  0  0  0
   -0.6502    1.8844   26.6014 H   0  0  0  0  0  0  0  0  0  0  0  0
   -1.9825    2.0621   27.7687 H   0  0  0  0  0  0  0  0  0  0  0  0
    0.3237    0.2262   28.0628 H   0  0  0  0  0  0  0  0  0  0  0  0
   -1.5649   -1.4599   31.5360 H   0  0  0  0  0  0  0  0  0  0  0  0
   -0.4113   -3.5572   32.2095 H   0  0  0  0  0  0  0  0  0  0  0  0
    1.6660   -3.7430   28.6594 H   0  0  0  0  0  0  0  0  0  0  0  0
    0.5930   -1.7028   27.7908 H   0  0  0  0  0  0  0  0  0  0  0  0
    1.8018    3.9719   28.1925 H   0  0  0  0  0  0  0  0  0  0  0  0
    4.0968    2.7251   28.6095 H   0  0  0  0  0  0  0  0  0  0  0  0
    3.5999    3.6783   27.1977 H   0  0  0  0  0  0  0  0  0  0  0  0
    6.4729   -0.6037   26.1091 H   0  0  0  0  0  0  0  0  0  0  0  0
    4.9424    0.2286   23.9662 H   0  0  0  0  0  0  0  0  0  0  0  0
    3.9179    3.6233   24.6848 H   0  0  0  0  0  0  0  0  0  0  0  0
    3.6803    2.3317   23.4895 H   0  0  0  0  0  0  0  0  0  0  0  0
    2.5131    2.5227   24.8319 H   0  0  0  0  0  0  0  0  0  0  0  0
  1  2  1  0
  2  3  1  0
  3  4  1  0
  4  5  1  0
  5  6  2  0
  5  7  1  0
  7  8  2  0
  8  9  1  0
  9 10  2  0
 10 11  1  0
 11 12  2  0
  2 13  1  0
 13 14  1  0
 14 15  2  0
 14 16  1  0
 16 17  1  0
 17 18  2  0
 18 19  1  0
 19 20  2  0
 20 21  1  0
 21 22  1  0
 12  7  1  0
 21 17  1  0
  1 23  1  0
  1 24  1  0
  1 25  1  0
  2 26  1  0
  3 27  1  0
  3 28  1  0
  4 29  1  0
  8 30  1  0
  9 31  1  0
 11 32  1  0
 12 33  1  0
 13 34  1  0
 16 35  1  0
 16 36  1  0
 19 37  1  0
 20 38  1  0
 22 39  1  0
 22 40  1  0
 22 41  1  0
M  END
>  <Energy>  (500) 
22.975047687698055

>  <compound_id>  (500) 
11944

>  <target_id>  (500) 
1

>  <reference_id>  (500) 
59

>  <inspiration_ids>  (500) 
[80, 59]

>  <energy_score>  (500) 
-19.301333294927304

>  <distance_score>  (500) 
8.939005502875931

>  <path>  (500) 
/opt/xchem-fragalysis-2/maxwin/BulkDock/SCRATCH/511022/C11944-P59/C11944-P59.minimised.mol

>  <scratch_subdir>  (500) 
/opt/xchem-fragalysis-2/maxwin/BulkDock/SCRATCH/511022/C11944-P59

>  <fragmenstein_runtime>  (500) 
15.616606712341309

>  <fragmenstein_outcome>  (500) 
too moved

>  <fragmenstein_mode>  (500) 
expansion

>  <fragmenstein_error>  (500) 


$$$$
C7728-P80
     RDKit          3D

 38 39  0  0  0  0  0  0  0  0999 V2000
    5.1211   -1.4350   29.0606 C   0  0  0  0  0  0  0  0  0  0  0  0
    5.6676   -0.3112   28.1610 C   0  0  0  0  0  0  0  0  0  0  0  0
    5.1557    1.0725   28.6348 C   0  0  0  0  0  0  0  0  0  0  0  0
    3.7228    1.1032   28.8644 N   0  0  0  0  0  0  0  0  0  0  0  0
    2.9559    0.8589   30.0485 C   0  0  0  0  0  0  0  0  0  0  0  0
    3.3037    0.6438   31.1711 O   0  0  0  0  0  0  0  0  0  0  0  0
    1.5083    0.8587   29.7857 C   0  0  0  0  0  0  0  0  0  0  0  0
    0.5024    0.5513   30.6888 C   0  0  0  0  0  0  0  0  0  0  0  0
   -0.7952    0.6161   30.2132 N   0  0  0  0  0  0  0  0  0  0  0  0
   -0.7633    0.9682   28.9485 C   0  0  0  0  0  0  0  0  0  0  0  0
    0.7895    1.2327   28.2738 S   0  0  0  0  0  0  0  0  0  0  0  0
    7.1357   -0.3764   28.0584 N   0  0  0  0  0  0  0  0  0  0  0  0
    8.0926    0.5608   27.5019 C   0  0  0  0  0  0  0  0  0  0  0  0
    7.9376    1.6628   27.0551 O   0  0  0  0  0  0  0  0  0  0  0  0
    9.5385    0.0216   27.6100 C   0  0  0  0  0  0  0  0  0  0  0  0
   10.2937   -0.0532   26.3009 C   0  0  0  0  0  0  0  0  0  0  0  0
   10.7799   -1.1792   25.8042 N   0  0  0  0  0  0  0  0  0  0  0  0
   11.5580   -0.8309   24.7319 C   0  0  0  0  0  0  0  0  0  0  0  0
   11.5006    0.5211   24.5141 C   0  0  0  0  0  0  0  0  0  0  0  0
   10.7337    1.0134   25.5380 N   0  0  0  0  0  0  0  0  0  0  0  0
   10.5247    2.4186   25.7903 C   0  0  0  0  0  0  0  0  0  0  0  0
    5.5465   -2.4000   28.7648 H   0  0  0  0  0  0  0  0  0  0  0  0
    5.3944   -1.2668   30.1078 H   0  0  0  0  0  0  0  0  0  0  0  0
    4.0336   -1.5247   28.9860 H   0  0  0  0  0  0  0  0  0  0  0  0
    5.2955   -0.4826   27.1433 H   0  0  0  0  0  0  0  0  0  0  0  0
    5.3835    1.8440   27.8929 H   0  0  0  0  0  0  0  0  0  0  0  0
    5.6473    1.3464   29.5752 H   0  0  0  0  0  0  0  0  0  0  0  0
    3.0915    1.3287   28.1029 H   0  0  0  0  0  0  0  0  0  0  0  0
    0.6734    0.2714   31.7228 H   0  0  0  0  0  0  0  0  0  0  0  0
   -1.6646    1.0904   28.3617 H   0  0  0  0  0  0  0  0  0  0  0  0
    7.6334   -1.1847   28.4162 H   0  0  0  0  0  0  0  0  0  0  0  0
   10.0776    0.6736   28.3080 H   0  0  0  0  0  0  0  0  0  0  0  0
    9.5479   -0.9762   28.0624 H   0  0  0  0  0  0  0  0  0  0  0  0
   12.1067   -1.5773   24.1727 H   0  0  0  0  0  0  0  0  0  0  0  0
   11.9662    1.1504   23.7689 H   0  0  0  0  0  0  0  0  0  0  0  0
   10.4670    2.5955   26.8661 H   0  0  0  0  0  0  0  0  0  0  0  0
    9.6040    2.7248   25.2903 H   0  0  0  0  0  0  0  0  0  0  0  0
   11.3693    2.9827   25.3846 H   0  0  0  0  0  0  0  0  0  0  0  0
  1  2  1  0
  2  3  1  0
  3  4  1  0
  4  5  1  0
  5  6  2  0
  5  7  1  0
  7  8  2  0
  8  9  1  0
  9 10  2  0
 10 11  1  0
  2 12  1  0
 12 13  1  0
 13 14  2  0
 13 15  1  0
 15 16  1  0
 16 17  2  0
 17 18  1  0
 18 19  2  0
 19 20  1  0
 20 21  1  0
 11  7  1  0
 20 16  1  0
  1 22  1  0
  1 23  1  0
  1 24  1  0
  2 25  1  0
  3 26  1  0
  3 27  1  0
  4 28  1  0
  8 29  1  0
 10 30  1  0
 12 31  1  0
 15 32  1  0
 15 33  1  0
 18 34  1  0
 19 35  1  0
 21 36  1  0
 21 37  1  0
 21 38  1  0
M  END
>  <Energy>  (501) 
13.819109456838701

>  <compound_id>  (501) 
7728

>  <target_id>  (501) 
1

>  <reference_id>  (501) 
80

>  <inspiration_ids>  (501) 
[80, 59]

>  <energy_score>  (501) 
-50.24056982102775

>  <distance_score>  (501) 
9.503988852262752

>  <path>  (501) 
/opt/xchem-fragalysis-2/maxwin/BulkDock/SCRATCH/511022/C7728-P80/C7728-P80.minimised.mol

>  <scratch_subdir>  (501) 
/opt/xchem-fragalysis-2/maxwin/BulkDock/SCRATCH/511022/C7728-P80

>  <fragmenstein_runtime>  (501) 
26.660412311553955

>  <fragmenstein_outcome>  (501) 
too moved

>  <fragmenstein_mode>  (501) 
expansion

>  <fragmenstein_error>  (501) 


$$$$
C7728-P59
     RDKit          3D

 38 39  0  0  0  0  0  0  0  0999 V2000
    1.7474    0.6616   30.3343 C   0  0  0  0  0  0  0  0  0  0  0  0
    2.2709    0.8117   28.8372 C   0  0  0  0  0  0  0  0  0  0  0  0
    1.1339    0.5595   27.8052 C   0  0  0  0  0  0  0  0  0  0  0  0
    0.1408   -0.2175   28.4690 N   0  0  0  0  0  0  0  0  0  0  0  0
   -1.3176    0.1022   28.7925 C   0  0  0  0  0  0  0  0  0  0  0  0
   -1.9691    1.0178   28.5036 O   0  0  0  0  0  0  0  0  0  0  0  0
   -1.7639   -0.9513   29.6632 C   0  0  0  0  0  0  0  0  0  0  0  0
   -1.6747   -2.3136   29.5297 C   0  0  0  0  0  0  0  0  0  0  0  0
   -1.8002   -3.0225   30.7062 N   0  0  0  0  0  0  0  0  0  0  0  0
   -2.0105   -2.1892   31.7011 C   0  0  0  0  0  0  0  0  0  0  0  0
   -2.0890   -0.5406   31.2985 S   0  0  0  0  0  0  0  0  0  0  0  0
    3.4555    0.0031   28.4450 N   0  0  0  0  0  0  0  0  0  0  0  0
    4.9811    0.3253   28.5442 C   0  0  0  0  0  0  0  0  0  0  0  0
    5.5335    1.2426   29.0207 O   0  0  0  0  0  0  0  0  0  0  0  0
    5.8022   -0.7585   27.7703 C   0  0  0  0  0  0  0  0  0  0  0  0
    5.7473   -0.6073   26.2506 C   0  0  0  0  0  0  0  0  0  0  0  0
    5.4577   -1.6019   25.4304 N   0  0  0  0  0  0  0  0  0  0  0  0
    4.8177   -1.0088   24.3892 C   0  0  0  0  0  0  0  0  0  0  0  0
    4.9811    0.3597   24.4446 C   0  0  0  0  0  0  0  0  0  0  0  0
    5.6877    0.5928   25.5825 N   0  0  0  0  0  0  0  0  0  0  0  0
    5.9201    1.9024   26.1501 C   0  0  0  0  0  0  0  0  0  0  0  0
    2.5394    1.0042   31.0100 H   0  0  0  0  0  0  0  0  0  0  0  0
    1.5516   -0.3825   30.5953 H   0  0  0  0  0  0  0  0  0  0  0  0
    0.8649    1.2830   30.5124 H   0  0  0  0  0  0  0  0  0  0  0  0
    2.6083    1.8493   28.7216 H   0  0  0  0  0  0  0  0  0  0  0  0
    1.4824    0.0162   26.9273 H   0  0  0  0  0  0  0  0  0  0  0  0
    0.6790    1.5054   27.4964 H   0  0  0  0  0  0  0  0  0  0  0  0
    0.4154   -1.0658   28.9501 H   0  0  0  0  0  0  0  0  0  0  0  0
   -1.4334   -2.8351   28.6117 H   0  0  0  0  0  0  0  0  0  0  0  0
   -2.1379   -2.5317   32.7216 H   0  0  0  0  0  0  0  0  0  0  0  0
    3.3212   -0.8401   27.8921 H   0  0  0  0  0  0  0  0  0  0  0  0
    5.4261   -1.7467   28.0584 H   0  0  0  0  0  0  0  0  0  0  0  0
    6.8461   -0.6990   28.0984 H   0  0  0  0  0  0  0  0  0  0  0  0
    4.3491   -1.5995   23.6219 H   0  0  0  0  0  0  0  0  0  0  0  0
    4.6541    1.1720   23.8145 H   0  0  0  0  0  0  0  0  0  0  0  0
    6.8188    1.8687   26.7697 H   0  0  0  0  0  0  0  0  0  0  0  0
    5.0368    2.2018   26.7175 H   0  0  0  0  0  0  0  0  0  0  0  0
    6.0587    2.6284   25.3552 H   0  0  0  0  0  0  0  0  0  0  0  0
  1  2  1  0
  2  3  1  0
  3  4  1  0
  4  5  1  0
  5  6  2  0
  5  7  1  0
  7  8  2  0
  8  9  1  0
  9 10  2  0
 10 11  1  0
  2 12  1  0
 12 13  1  0
 13 14  2  0
 13 15  1  0
 15 16  1  0
 16 17  2  0
 17 18  1  0
 18 19  2  0
 19 20  1  0
 20 21  1  0
 11  7  1  0
 20 16  1  0
  1 22  1  0
  1 23  1  0
  1 24  1  0
  2 25  1  0
  3 26  1  0
  3 27  1  0
  4 28  1  0
  8 29  1  0
 10 30  1  0
 12 31  1  0
 15 32  1  0
 15 33  1  0
 18 34  1  0
 19 35  1  0
 21 36  1  0
 21 37  1  0
 21 38  1  0
M  END
>  <Energy>  (502) 
59.21468364890849

>  <compound_id>  (502) 
7728

>  <target_id>  (502) 
1

>  <reference_id>  (502) 
59

>  <inspiration_ids>  (502) 
[80, 59]

>  <energy_score>  (502) 
14.698485969519538

>  <distance_score>  (502) 
8.910532108076827

>  <path>  (502) 
/opt/xchem-fragalysis-2/maxwin/BulkDock/SCRATCH/511022/C7728-P59/C7728-P59.minimised.mol

>  <scratch_subdir>  (502) 
/opt/xchem-fragalysis-2/maxwin/BulkDock/SCRATCH/511022/C7728-P59

>  <fragmenstein_runtime>  (502) 
9.719207525253296

>  <fragmenstein_outcome>  (502) 
too moved

>  <fragmenstein_mode>  (502) 
expansion

>  <fragmenstein_error>  (502) 


$$$$
C11896-P80
     RDKit          3D

 41 42  0  0  0  0  0  0  0  0999 V2000
    4.1739   -1.2808   26.7711 C   0  0  0  0  0  0  0  0  0  0  0  0
    3.4443   -2.3268   25.8640 C   0  0  0  0  0  0  0  0  0  0  0  0
    3.1747   -3.5942   26.7246 C   0  0  0  0  0  0  0  0  0  0  0  0
    2.2683   -3.2921   27.8411 N   0  0  0  0  0  0  0  0  0  0  0  0
    1.0346   -3.8893   28.2337 C   0  0  0  0  0  0  0  0  0  0  0  0
    0.4558   -4.8418   27.8038 O   0  0  0  0  0  0  0  0  0  0  0  0
    0.3914   -3.1021   29.3154 C   0  0  0  0  0  0  0  0  0  0  0  0
    0.9984   -2.9469   30.5598 C   0  0  0  0  0  0  0  0  0  0  0  0
    0.3975   -2.1209   31.5070 C   0  0  0  0  0  0  0  0  0  0  0  0
   -0.7865   -1.4808   31.1727 C   0  0  0  0  0  0  0  0  0  0  0  0
   -1.4002   -1.6147   29.9786 N   0  0  0  0  0  0  0  0  0  0  0  0
   -0.7943   -2.4251   29.0726 C   0  0  0  0  0  0  0  0  0  0  0  0
    4.0729   -2.3741   24.4831 N   0  0  0  0  0  0  0  0  0  0  0  0
    4.8727   -1.3829   23.7429 C   0  0  0  0  0  0  0  0  0  0  0  0
    5.2351   -0.3724   24.1592 O   0  0  0  0  0  0  0  0  0  0  0  0
    5.5076   -1.6010   21.8876 C   0  0  0  0  0  0  0  0  0  0  0  0
    6.9293   -0.6730   20.7687 C   0  0  0  0  0  0  0  0  0  0  0  0
    8.1483   -1.0884   20.3872 N   0  0  0  0  0  0  0  0  0  0  0  0
    8.0269   -0.7413   19.0974 C   0  0  0  0  0  0  0  0  0  0  0  0
    6.7748   -0.6719   18.6759 C   0  0  0  0  0  0  0  0  0  0  0  0
    6.9659    0.2464   19.5405 N   0  0  0  0  0  0  0  0  0  0  0  0
    7.4553    1.7672   19.1207 C   0  0  0  0  0  0  0  0  0  0  0  0
    4.1575   -0.2898   26.3056 H   0  0  0  0  0  0  0  0  0  0  0  0
    3.7028   -1.1474   27.7471 H   0  0  0  0  0  0  0  0  0  0  0  0
    5.2196   -1.5447   26.9437 H   0  0  0  0  0  0  0  0  0  0  0  0
    2.5345   -1.7613   25.7421 H   0  0  0  0  0  0  0  0  0  0  0  0
    2.7957   -4.4388   26.1579 H   0  0  0  0  0  0  0  0  0  0  0  0
    4.0715   -3.9420   27.2302 H   0  0  0  0  0  0  0  0  0  0  0  0
    2.4095   -2.4450   28.3767 H   0  0  0  0  0  0  0  0  0  0  0  0
    1.9276   -3.4604   30.7910 H   0  0  0  0  0  0  0  0  0  0  0  0
    0.8420   -1.9796   32.4867 H   0  0  0  0  0  0  0  0  0  0  0  0
   -1.2877   -0.8285   31.8825 H   0  0  0  0  0  0  0  0  0  0  0  0
   -1.2920   -2.4928   28.1117 H   0  0  0  0  0  0  0  0  0  0  0  0
    3.8294   -3.1054   23.8614 H   0  0  0  0  0  0  0  0  0  0  0  0
    5.4914   -2.6055   21.4590 H   0  0  0  0  0  0  0  0  0  0  0  0
    4.8463   -0.7341   21.7672 H   0  0  0  0  0  0  0  0  0  0  0  0
    8.5296   -0.3127   18.2322 H   0  0  0  0  0  0  0  0  0  0  0  0
    6.2476   -0.8348   17.7366 H   0  0  0  0  0  0  0  0  0  0  0  0
    7.5945    2.1521   20.1328 H   0  0  0  0  0  0  0  0  0  0  0  0
    6.8954    2.4417   18.4578 H   0  0  0  0  0  0  0  0  0  0  0  0
    8.1766    1.7203   18.2702 H   0  0  0  0  0  0  0  0  0  0  0  0
  1  2  1  0
  2  3  1  0
  3  4  1  0
  4  5  1  0
  5  6  2  0
  5  7  1  0
  7  8  2  0
  8  9  1  0
  9 10  2  0
 10 11  1  0
 11 12  2  0
  2 13  1  0
 13 14  1  0
 14 15  2  0
 14 16  1  0
 16 17  1  0
 17 18  2  0
 18 19  1  0
 19 20  2  0
 20 21  1  0
 21 22  1  0
 12  7  1  0
 21 17  1  0
  1 23  1  0
  1 24  1  0
  1 25  1  0
  2 26  1  0
  3 27  1  0
  3 28  1  0
  4 29  1  0
  8 30  1  0
  9 31  1  0
 10 32  1  0
 12 33  1  0
 13 34  1  0
 16 35  1  0
 16 36  1  0
 19 37  1  0
 20 38  1  0
 22 39  1  0
 22 40  1  0
 22 41  1  0
M  END
>  <Energy>  (503) 
434.789599346084

>  <compound_id>  (503) 
11896

>  <target_id>  (503) 
1

>  <reference_id>  (503) 
80

>  <inspiration_ids>  (503) 
[80, 59]

>  <energy_score>  (503) 
377.57845049056317

>  <distance_score>  (503) 
8.198878905929842

>  <path>  (503) 
/opt/xchem-fragalysis-2/maxwin/BulkDock/SCRATCH/511022/C11896-P80/C11896-P80.minimised.mol

>  <scratch_subdir>  (503) 
/opt/xchem-fragalysis-2/maxwin/BulkDock/SCRATCH/511022/C11896-P80

>  <fragmenstein_runtime>  (503) 
12.421157598495483

>  <fragmenstein_outcome>  (503) 
too moved

>  <fragmenstein_mode>  (503) 
expansion

>  <fragmenstein_error>  (503) 


$$$$
C11896-P59
     RDKit          3D

 41 42  0  0  0  0  0  0  0  0999 V2000
    4.9136    1.0447   28.5949 C   0  0  0  0  0  0  0  0  0  0  0  0
    5.7950    0.1069   27.5980 C   0  0  0  0  0  0  0  0  0  0  0  0
    4.7896   -0.6229   26.6421 C   0  0  0  0  0  0  0  0  0  0  0  0
    3.4068   -0.6490   27.1488 N   0  0  0  0  0  0  0  0  0  0  0  0
    2.7442   -1.5537   28.2158 C   0  0  0  0  0  0  0  0  0  0  0  0
    3.1705   -2.4677   28.8020 O   0  0  0  0  0  0  0  0  0  0  0  0
    1.3702   -1.0832   28.5709 C   0  0  0  0  0  0  0  0  0  0  0  0
    0.2707   -1.9327   28.4565 C   0  0  0  0  0  0  0  0  0  0  0  0
   -1.0035   -1.4513   28.7418 C   0  0  0  0  0  0  0  0  0  0  0  0
   -1.1278   -0.1490   29.1877 C   0  0  0  0  0  0  0  0  0  0  0  0
   -0.0808    0.6719   29.4106 N   0  0  0  0  0  0  0  0  0  0  0  0
    1.1441    0.1828   29.0982 C   0  0  0  0  0  0  0  0  0  0  0  0
    7.0218    0.7181   26.8268 N   0  0  0  0  0  0  0  0  0  0  0  0
    8.2894   -0.0068   26.1364 C   0  0  0  0  0  0  0  0  0  0  0  0
    8.5278   -1.1569   25.9943 O   0  0  0  0  0  0  0  0  0  0  0  0
    9.4035    1.0597   25.6114 C   0  0  0  0  0  0  0  0  0  0  0  0
   10.4845    0.7049   24.3980 C   0  0  0  0  0  0  0  0  0  0  0  0
   10.8817    1.5758   23.4593 N   0  0  0  0  0  0  0  0  0  0  0  0
   12.0788    1.1274   22.9342 C   0  0  0  0  0  0  0  0  0  0  0  0
   12.3573   -0.1266   23.4047 C   0  0  0  0  0  0  0  0  0  0  0  0
   11.3572   -0.3851   24.3284 N   0  0  0  0  0  0  0  0  0  0  0  0
   11.3852   -1.5075   25.2403 C   0  0  0  0  0  0  0  0  0  0  0  0
    5.6075    1.6445   29.1934 H   0  0  0  0  0  0  0  0  0  0  0  0
    4.3169    0.4428   29.2824 H   0  0  0  0  0  0  0  0  0  0  0  0
    4.2888    1.7346   28.0201 H   0  0  0  0  0  0  0  0  0  0  0  0
    6.2574   -0.6577   28.2353 H   0  0  0  0  0  0  0  0  0  0  0  0
    5.1141   -1.6567   26.4859 H   0  0  0  0  0  0  0  0  0  0  0  0
    4.7553   -0.1174   25.6714 H   0  0  0  0  0  0  0  0  0  0  0  0
    2.7750    0.1068   26.9055 H   0  0  0  0  0  0  0  0  0  0  0  0
    0.4030   -2.9535   28.1147 H   0  0  0  0  0  0  0  0  0  0  0  0
   -1.8792   -2.0756   28.6011 H   0  0  0  0  0  0  0  0  0  0  0  0
   -2.1047    0.2746   29.4017 H   0  0  0  0  0  0  0  0  0  0  0  0
    1.9619    0.8721   29.2823 H   0  0  0  0  0  0  0  0  0  0  0  0
    7.1738    1.7201   26.8519 H   0  0  0  0  0  0  0  0  0  0  0  0
    8.9000    1.9863   25.3188 H   0  0  0  0  0  0  0  0  0  0  0  0
   10.0293    1.2895   26.4835 H   0  0  0  0  0  0  0  0  0  0  0  0
   12.6560    1.7429   22.2571 H   0  0  0  0  0  0  0  0  0  0  0  0
   13.1793   -0.8087   23.2376 H   0  0  0  0  0  0  0  0  0  0  0  0
   11.1564   -1.1578   26.2491 H   0  0  0  0  0  0  0  0  0  0  0  0
   12.3863   -1.9478   25.2376 H   0  0  0  0  0  0  0  0  0  0  0  0
   10.6616   -2.2495   24.9007 H   0  0  0  0  0  0  0  0  0  0  0  0
  1  2  1  0
  2  3  1  0
  3  4  1  0
  4  5  1  0
  5  6  2  0
  5  7  1  0
  7  8  2  0
  8  9  1  0
  9 10  2  0
 10 11  1  0
 11 12  2  0
  2 13  1  0
 13 14  1  0
 14 15  2  0
 14 16  1  0
 16 17  1  0
 17 18  2  0
 18 19  1  0
 19 20  2  0
 20 21  1  0
 21 22  1  0
 12  7  1  0
 21 17  1  0
  1 23  1  0
  1 24  1  0
  1 25  1  0
  2 26  1  0
  3 27  1  0
  3 28  1  0
  4 29  1  0
  8 30  1  0
  9 31  1  0
 10 32  1  0
 12 33  1  0
 13 34  1  0
 16 35  1  0
 16 36  1  0
 19 37  1  0
 20 38  1  0
 22 39  1  0
 22 40  1  0
 22 41  1  0
M  END
>  <Energy>  (504) 
107.44352719126807

>  <compound_id>  (504) 
11896

>  <target_id>  (504) 
1

>  <reference_id>  (504) 
59

>  <inspiration_ids>  (504) 
[80, 59]

>  <energy_score>  (504) 
51.750856909177685

>  <distance_score>  (504) 
9.08146509207478

>  <path>  (504) 
/opt/xchem-fragalysis-2/maxwin/BulkDock/SCRATCH/511022/C11896-P59/C11896-P59.minimised.mol

>  <scratch_subdir>  (504) 
/opt/xchem-fragalysis-2/maxwin/BulkDock/SCRATCH/511022/C11896-P59

>  <fragmenstein_runtime>  (504) 
10.853355884552002

>  <fragmenstein_outcome>  (504) 
too moved

>  <fragmenstein_mode>  (504) 
expansion

>  <fragmenstein_error>  (504) 


$$$$
C46406-P80
     RDKit          3D

 38 39  0  0  0  0  0  0  0  0999 V2000
    3.5529   -1.6236   26.0493 C   0  0  0  0  0  0  0  0  0  0  0  0
    4.2186   -0.3067   25.5933 C   0  0  0  0  0  0  0  0  0  0  0  0
    5.0787    0.2114   26.7701 C   0  0  0  0  0  0  0  0  0  0  0  0
    4.1828    0.4403   27.8999 N   0  0  0  0  0  0  0  0  0  0  0  0
    3.1683    1.4207   28.1054 C   0  0  0  0  0  0  0  0  0  0  0  0
    2.8427    2.3582   27.4402 O   0  0  0  0  0  0  0  0  0  0  0  0
    2.3859    1.0924   29.3064 C   0  0  0  0  0  0  0  0  0  0  0  0
    1.2079    1.6923   29.6974 C   0  0  0  0  0  0  0  0  0  0  0  0
    0.7347    1.0383   30.7939 O   0  0  0  0  0  0  0  0  0  0  0  0
    1.6643    0.0705   31.0200 C   0  0  0  0  0  0  0  0  0  0  0  0
    2.6692    0.0449   30.1727 N   0  0  0  0  0  0  0  0  0  0  0  0
    4.7291   -0.3864   24.1928 N   0  0  0  0  0  0  0  0  0  0  0  0
    5.3378   -1.4513   23.4670 C   0  0  0  0  0  0  0  0  0  0  0  0
    5.6370   -2.4822   23.8770 O   0  0  0  0  0  0  0  0  0  0  0  0
    5.9124   -1.2874   21.4667 C   0  0  0  0  0  0  0  0  0  0  0  0
    7.1699   -0.2974   20.1295 C   0  0  0  0  0  0  0  0  0  0  0  0
    7.5898    1.0618   20.3937 N   0  0  0  0  0  0  0  0  0  0  0  0
    7.5482    2.0372   19.0394 C   0  0  0  0  0  0  0  0  0  0  0  0
    8.1090    1.4443   17.9657 C   0  0  0  0  0  0  0  0  0  0  0  0
    7.6706   -0.1093   18.4020 N   0  0  0  0  0  0  0  0  0  0  0  0
    7.5688   -0.5018   16.7588 C   0  0  0  0  0  0  0  0  0  0  0  0
    3.3117   -2.2549   25.1960 H   0  0  0  0  0  0  0  0  0  0  0  0
    4.2261   -2.2104   26.6819 H   0  0  0  0  0  0  0  0  0  0  0  0
    2.6460   -1.4312   26.6309 H   0  0  0  0  0  0  0  0  0  0  0  0
    3.3998    0.4146   25.4851 H   0  0  0  0  0  0  0  0  0  0  0  0
    5.5572    1.1661   26.5482 H   0  0  0  0  0  0  0  0  0  0  0  0
    5.8438   -0.5100   27.0718 H   0  0  0  0  0  0  0  0  0  0  0  0
    4.2298   -0.1647   28.7189 H   0  0  0  0  0  0  0  0  0  0  0  0
    0.6122    2.5100   29.3172 H   0  0  0  0  0  0  0  0  0  0  0  0
    1.4885   -0.5798   31.8655 H   0  0  0  0  0  0  0  0  0  0  0  0
    4.5095    0.3629   23.5396 H   0  0  0  0  0  0  0  0  0  0  0  0
    5.1778   -0.4063   21.4833 H   0  0  0  0  0  0  0  0  0  0  0  0
    5.7409   -2.3495   21.1404 H   0  0  0  0  0  0  0  0  0  0  0  0
    7.3853    3.1158   19.0799 H   0  0  0  0  0  0  0  0  0  0  0  0
    8.4842    1.6873   16.9819 H   0  0  0  0  0  0  0  0  0  0  0  0
    7.6072    0.3890   16.1436 H   0  0  0  0  0  0  0  0  0  0  0  0
    6.6076   -0.9737   16.6127 H   0  0  0  0  0  0  0  0  0  0  0  0
    8.4869   -1.0390   16.5009 H   0  0  0  0  0  0  0  0  0  0  0  0
  1  2  1  0
  2  3  1  0
  3  4  1  0
  4  5  1  0
  5  6  2  0
  5  7  1  0
  7  8  2  0
  8  9  1  0
  9 10  1  0
 10 11  2  0
  2 12  1  0
 12 13  1  0
 13 14  2  0
 13 15  1  0
 15 16  1  0
 16 17  2  0
 17 18  1  0
 18 19  2  0
 19 20  1  0
 20 21  1  0
 11  7  1  0
 20 16  1  0
  1 22  1  0
  1 23  1  0
  1 24  1  0
  2 25  1  0
  3 26  1  0
  3 27  1  0
  4 28  1  0
  8 29  1  0
 10 30  1  0
 12 31  1  0
 15 32  1  0
 15 33  1  0
 18 34  1  0
 19 35  1  0
 21 36  1  0
 21 37  1  0
 21 38  1  0
M  END
>  <Energy>  (505) 
484.31449137577033

>  <compound_id>  (505) 
46406

>  <target_id>  (505) 
1

>  <reference_id>  (505) 
80

>  <inspiration_ids>  (505) 
[80, 59]

>  <energy_score>  (505) 
425.11719679360897

>  <distance_score>  (505) 
9.12632660307046

>  <path>  (505) 
/opt/xchem-fragalysis-2/maxwin/BulkDock/SCRATCH/511022/C46406-P80/C46406-P80.minimised.mol

>  <scratch_subdir>  (505) 
/opt/xchem-fragalysis-2/maxwin/BulkDock/SCRATCH/511022/C46406-P80

>  <fragmenstein_runtime>  (505) 
16.674581050872803

>  <fragmenstein_outcome>  (505) 
too moved

>  <fragmenstein_mode>  (505) 
expansion

>  <fragmenstein_error>  (505) 


$$$$
C46406-P59
     RDKit          3D

 38 39  0  0  0  0  0  0  0  0999 V2000
    3.4907   -4.7287   27.2494 C   0  0  0  0  0  0  0  0  0  0  0  0
    4.4619   -3.5701   27.0131 C   0  0  0  0  0  0  0  0  0  0  0  0
    4.2440   -2.4534   28.0693 C   0  0  0  0  0  0  0  0  0  0  0  0
    2.9403   -1.8128   28.0794 N   0  0  0  0  0  0  0  0  0  0  0  0
    1.6665   -2.2855   28.5213 C   0  0  0  0  0  0  0  0  0  0  0  0
    1.3286   -3.3599   28.9245 O   0  0  0  0  0  0  0  0  0  0  0  0
    0.6823   -1.1954   28.4921 C   0  0  0  0  0  0  0  0  0  0  0  0
   -0.6786   -1.3143   28.6734 C   0  0  0  0  0  0  0  0  0  0  0  0
   -1.2266   -0.0684   28.6240 O   0  0  0  0  0  0  0  0  0  0  0  0
   -0.1617    0.7479   28.3953 C   0  0  0  0  0  0  0  0  0  0  0  0
    1.0024    0.1424   28.3073 N   0  0  0  0  0  0  0  0  0  0  0  0
    4.3909   -3.0924   25.6351 N   0  0  0  0  0  0  0  0  0  0  0  0
    4.9089   -1.8958   25.0213 C   0  0  0  0  0  0  0  0  0  0  0  0
    5.4650   -0.9461   25.5049 O   0  0  0  0  0  0  0  0  0  0  0  0
    4.5830   -1.7911   23.4599 C   0  0  0  0  0  0  0  0  0  0  0  0
    5.3204   -2.7126   22.2738 C   0  0  0  0  0  0  0  0  0  0  0  0
    6.3727   -3.4065   22.5692 N   0  0  0  0  0  0  0  0  0  0  0  0
    7.0976   -3.1404   21.4179 C   0  0  0  0  0  0  0  0  0  0  0  0
    6.4015   -1.8664   20.6917 C   0  0  0  0  0  0  0  0  0  0  0  0
    5.4163   -2.7255   20.8144 N   0  0  0  0  0  0  0  0  0  0  0  0
    5.3322   -3.7079   19.7370 C   0  0  0  0  0  0  0  0  0  0  0  0
    3.7570   -5.5757   26.6067 H   0  0  0  0  0  0  0  0  0  0  0  0
    3.5294   -5.0753   28.2869 H   0  0  0  0  0  0  0  0  0  0  0  0
    2.4653   -4.4629   27.0016 H   0  0  0  0  0  0  0  0  0  0  0  0
    5.4851   -3.9439   27.1394 H   0  0  0  0  0  0  0  0  0  0  0  0
    4.3878   -2.8799   29.0690 H   0  0  0  0  0  0  0  0  0  0  0  0
    4.9859   -1.6586   27.9449 H   0  0  0  0  0  0  0  0  0  0  0  0
    2.8739   -0.8133   27.8847 H   0  0  0  0  0  0  0  0  0  0  0  0
   -1.3566   -2.1404   28.8330 H   0  0  0  0  0  0  0  0  0  0  0  0
   -0.3742    1.8051   28.3105 H   0  0  0  0  0  0  0  0  0  0  0  0
    4.0632   -3.7134   24.9160 H   0  0  0  0  0  0  0  0  0  0  0  0
    3.5204   -1.9872   23.3613 H   0  0  0  0  0  0  0  0  0  0  0  0
    4.8227   -0.7651   23.2258 H   0  0  0  0  0  0  0  0  0  0  0  0
    7.9701   -3.7610   21.1541 H   0  0  0  0  0  0  0  0  0  0  0  0
    6.8728   -1.0947   20.0462 H   0  0  0  0  0  0  0  0  0  0  0  0
    4.5117   -4.4104   19.6429 H   0  0  0  0  0  0  0  0  0  0  0  0
    6.1905   -4.3871   19.5602 H   0  0  0  0  0  0  0  0  0  0  0  0
    5.2563   -2.8946   19.0312 H   0  0  0  0  0  0  0  0  0  0  0  0
  1  2  1  0
  2  3  1  0
  3  4  1  0
  4  5  1  0
  5  6  2  0
  5  7  1  0
  7  8  2  0
  8  9  1  0
  9 10  1  0
 10 11  2  0
  2 12  1  0
 12 13  1  0
 13 14  2  0
 13 15  1  0
 15 16  1  0
 16 17  2  0
 17 18  1  0
 18 19  2  0
 19 20  1  0
 20 21  1  0
 11  7  1  0
 20 16  1  0
  1 22  1  0
  1 23  1  0
  1 24  1  0
  2 25  1  0
  3 26  1  0
  3 27  1  0
  4 28  1  0
  8 29  1  0
 10 30  1  0
 12 31  1  0
 15 32  1  0
 15 33  1  0
 18 34  1  0
 19 35  1  0
 21 36  1  0
 21 37  1  0
 21 38  1  0
M  END
>  <Energy>  (506) 
188.30770715340319

>  <compound_id>  (506) 
46406

>  <target_id>  (506) 
1

>  <reference_id>  (506) 
59

>  <inspiration_ids>  (506) 
[80, 59]

>  <energy_score>  (506) 
129.11041257125055

>  <distance_score>  (506) 
8.720407271055143

>  <path>  (506) 
/opt/xchem-fragalysis-2/maxwin/BulkDock/SCRATCH/511022/C46406-P59/C46406-P59.minimised.mol

>  <scratch_subdir>  (506) 
/opt/xchem-fragalysis-2/maxwin/BulkDock/SCRATCH/511022/C46406-P59

>  <fragmenstein_runtime>  (506) 
13.035963535308838

>  <fragmenstein_outcome>  (506) 
too moved

>  <fragmenstein_mode>  (506) 
expansion

>  <fragmenstein_error>  (506) 


$$$$
C46407-P80
     RDKit          3D

 38 39  0  0  0  0  0  0  0  0999 V2000
    3.2876   -1.2205   26.7464 C   0  0  0  0  0  0  0  0  0  0  0  0
    4.0555   -0.0288   26.1335 C   0  0  0  0  0  0  0  0  0  0  0  0
    3.3482    1.3277   26.4391 C   0  0  0  0  0  0  0  0  0  0  0  0
    2.3644    1.2827   27.5053 N   0  0  0  0  0  0  0  0  0  0  0  0
    0.9550    1.5229   27.4918 C   0  0  0  0  0  0  0  0  0  0  0  0
    0.2364    1.9000   26.6143 O   0  0  0  0  0  0  0  0  0  0  0  0
    0.3556    1.1348   28.7602 C   0  0  0  0  0  0  0  0  0  0  0  0
   -0.9589    1.0792   29.1720 C   0  0  0  0  0  0  0  0  0  0  0  0
   -1.0390    0.6084   30.4593 N   0  0  0  0  0  0  0  0  0  0  0  0
    0.2162    0.3865   30.7769 C   0  0  0  0  0  0  0  0  0  0  0  0
    1.1255    0.6787   29.8058 O   0  0  0  0  0  0  0  0  0  0  0  0
    4.4155   -0.2255   24.7043 N   0  0  0  0  0  0  0  0  0  0  0  0
    5.0028   -1.3319   24.0324 C   0  0  0  0  0  0  0  0  0  0  0  0
    5.4249   -2.3489   24.4671 O   0  0  0  0  0  0  0  0  0  0  0  0
    5.1741   -1.3228   22.0968 C   0  0  0  0  0  0  0  0  0  0  0  0
    6.4013   -0.1125   21.0881 C   0  0  0  0  0  0  0  0  0  0  0  0
    6.6152    1.2595   21.7930 N   0  0  0  0  0  0  0  0  0  0  0  0
    7.4941    2.1688   21.1992 C   0  0  0  0  0  0  0  0  0  0  0  0
    7.5697    1.6599   19.9608 C   0  0  0  0  0  0  0  0  0  0  0  0
    7.3278    0.1338   20.0808 N   0  0  0  0  0  0  0  0  0  0  0  0
    7.4792   -0.4651   18.8680 C   0  0  0  0  0  0  0  0  0  0  0  0
    2.2366   -1.2203   26.4695 H   0  0  0  0  0  0  0  0  0  0  0  0
    3.3427   -1.1929   27.8402 H   0  0  0  0  0  0  0  0  0  0  0  0
    3.7129   -2.1769   26.4317 H   0  0  0  0  0  0  0  0  0  0  0  0
    5.0253   -0.0128   26.6478 H   0  0  0  0  0  0  0  0  0  0  0  0
    4.0969    2.0705   26.7354 H   0  0  0  0  0  0  0  0  0  0  0  0
    2.8434    1.7113   25.5463 H   0  0  0  0  0  0  0  0  0  0  0  0
    2.6237    0.8873   28.4050 H   0  0  0  0  0  0  0  0  0  0  0  0
   -1.8377    1.3559   28.6045 H   0  0  0  0  0  0  0  0  0  0  0  0
    0.6104    0.0032   31.7081 H   0  0  0  0  0  0  0  0  0  0  0  0
    4.0889    0.4452   24.0085 H   0  0  0  0  0  0  0  0  0  0  0  0
    5.5307   -2.2650   22.4858 H   0  0  0  0  0  0  0  0  0  0  0  0
    5.5045   -2.1395   21.3962 H   0  0  0  0  0  0  0  0  0  0  0  0
    7.6068    3.1904   21.5540 H   0  0  0  0  0  0  0  0  0  0  0  0
    7.6352    2.0621   18.9377 H   0  0  0  0  0  0  0  0  0  0  0  0
    6.5361   -0.8200   18.4967 H   0  0  0  0  0  0  0  0  0  0  0  0
    8.2231   -1.1205   19.2299 H   0  0  0  0  0  0  0  0  0  0  0  0
    7.9624    0.0627   18.0264 H   0  0  0  0  0  0  0  0  0  0  0  0
  1  2  1  0
  2  3  1  0
  3  4  1  0
  4  5  1  0
  5  6  2  0
  5  7  1  0
  7  8  2  0
  8  9  1  0
  9 10  2  0
 10 11  1  0
  2 12  1  0
 12 13  1  0
 13 14  2  0
 13 15  1  0
 15 16  1  0
 16 17  2  0
 17 18  1  0
 18 19  2  0
 19 20  1  0
 20 21  1  0
 11  7  1  0
 20 16  1  0
  1 22  1  0
  1 23  1  0
  1 24  1  0
  2 25  1  0
  3 26  1  0
  3 27  1  0
  4 28  1  0
  8 29  1  0
 10 30  1  0
 12 31  1  0
 15 32  1  0
 15 33  1  0
 18 34  1  0
 19 35  1  0
 21 36  1  0
 21 37  1  0
 21 38  1  0
M  END
>  <Energy>  (507) 
304.74998967764486

>  <compound_id>  (507) 
46407

>  <target_id>  (507) 
1

>  <reference_id>  (507) 
80

>  <inspiration_ids>  (507) 
[80, 59]

>  <energy_score>  (507) 
253.52556422885306

>  <distance_score>  (507) 
8.962634404155354

>  <path>  (507) 
/opt/xchem-fragalysis-2/maxwin/BulkDock/SCRATCH/511022/C46407-P80/C46407-P80.minimised.mol

>  <scratch_subdir>  (507) 
/opt/xchem-fragalysis-2/maxwin/BulkDock/SCRATCH/511022/C46407-P80

>  <fragmenstein_runtime>  (507) 
16.46451449394226

>  <fragmenstein_outcome>  (507) 
too moved

>  <fragmenstein_mode>  (507) 
expansion

>  <fragmenstein_error>  (507) 


$$$$
C46407-P59
     RDKit          3D

 38 39  0  0  0  0  0  0  0  0999 V2000
    2.9177    5.8954   24.0022 C   0  0  0  0  0  0  0  0  0  0  0  0
    3.9821    4.8750   23.5639 C   0  0  0  0  0  0  0  0  0  0  0  0
    3.3812    3.4503   23.6985 C   0  0  0  0  0  0  0  0  0  0  0  0
    2.7462    3.1265   24.9639 N   0  0  0  0  0  0  0  0  0  0  0  0
    3.2656    2.4900   26.1438 C   0  0  0  0  0  0  0  0  0  0  0  0
    4.3741    2.1361   26.4129 O   0  0  0  0  0  0  0  0  0  0  0  0
    2.1982    2.1797   27.1137 C   0  0  0  0  0  0  0  0  0  0  0  0
    0.8302    2.3776   27.1893 C   0  0  0  0  0  0  0  0  0  0  0  0
    0.3066    1.7958   28.3192 N   0  0  0  0  0  0  0  0  0  0  0  0
    1.3593    1.2819   28.9074 C   0  0  0  0  0  0  0  0  0  0  0  0
    2.5327    1.4674   28.2517 O   0  0  0  0  0  0  0  0  0  0  0  0
    4.4703    5.1445   22.1828 N   0  0  0  0  0  0  0  0  0  0  0  0
    5.5747    5.9900   21.6970 C   0  0  0  0  0  0  0  0  0  0  0  0
    6.3418    6.6937   22.2964 O   0  0  0  0  0  0  0  0  0  0  0  0
    5.6267    5.9957   20.1235 C   0  0  0  0  0  0  0  0  0  0  0  0
    6.8981    5.5353   19.4008 C   0  0  0  0  0  0  0  0  0  0  0  0
    8.1552    5.5685   19.8178 N   0  0  0  0  0  0  0  0  0  0  0  0
    8.9145    4.9144   18.8764 C   0  0  0  0  0  0  0  0  0  0  0  0
    8.1445    4.5779   17.7952 C   0  0  0  0  0  0  0  0  0  0  0  0
    6.9023    5.0800   18.0857 N   0  0  0  0  0  0  0  0  0  0  0  0
    5.8367    5.1691   17.1165 C   0  0  0  0  0  0  0  0  0  0  0  0
    3.2987    6.9151   23.8782 H   0  0  0  0  0  0  0  0  0  0  0  0
    2.6431    5.7703   25.0540 H   0  0  0  0  0  0  0  0  0  0  0  0
    2.0136    5.8079   23.3897 H   0  0  0  0  0  0  0  0  0  0  0  0
    4.8459    4.9797   24.2303 H   0  0  0  0  0  0  0  0  0  0  0  0
    4.1674    2.7066   23.5587 H   0  0  0  0  0  0  0  0  0  0  0  0
    2.6245    3.2895   22.9233 H   0  0  0  0  0  0  0  0  0  0  0  0
    1.7759    3.3574   25.1148 H   0  0  0  0  0  0  0  0  0  0  0  0
    0.1811    2.8925   26.4959 H   0  0  0  0  0  0  0  0  0  0  0  0
    1.4066    0.7339   29.8376 H   0  0  0  0  0  0  0  0  0  0  0  0
    4.0833    4.6192   21.4007 H   0  0  0  0  0  0  0  0  0  0  0  0
    5.4494    7.0396   19.8304 H   0  0  0  0  0  0  0  0  0  0  0  0
    4.7697    5.4367   19.7370 H   0  0  0  0  0  0  0  0  0  0  0  0
    9.9721    4.7409   19.0273 H   0  0  0  0  0  0  0  0  0  0  0  0
    8.3785    4.0893   16.8607 H   0  0  0  0  0  0  0  0  0  0  0  0
    6.2330    5.6422   16.2134 H   0  0  0  0  0  0  0  0  0  0  0  0
    5.4888    4.1609   16.8841 H   0  0  0  0  0  0  0  0  0  0  0  0
    5.0165    5.7751   17.5039 H   0  0  0  0  0  0  0  0  0  0  0  0
  1  2  1  0
  2  3  1  0
  3  4  1  0
  4  5  1  0
  5  6  2  0
  5  7  1  0
  7  8  2  0
  8  9  1  0
  9 10  2  0
 10 11  1  0
  2 12  1  0
 12 13  1  0
 13 14  2  0
 13 15  1  0
 15 16  1  0
 16 17  2  0
 17 18  1  0
 18 19  2  0
 19 20  1  0
 20 21  1  0
 11  7  1  0
 20 16  1  0
  1 22  1  0
  1 23  1  0
  1 24  1  0
  2 25  1  0
  3 26  1  0
  3 27  1  0
  4 28  1  0
  8 29  1  0
 10 30  1  0
 12 31  1  0
 15 32  1  0
 15 33  1  0
 18 34  1  0
 19 35  1  0
 21 36  1  0
 21 37  1  0
 21 38  1  0
M  END
>  <Energy>  (508) 
50.288088342675309

>  <compound_id>  (508) 
46407

>  <target_id>  (508) 
1

>  <reference_id>  (508) 
59

>  <inspiration_ids>  (508) 
[80, 59]

>  <energy_score>  (508) 
-0.9363371061135126

>  <distance_score>  (508) 
10.820052198525826

>  <path>  (508) 
/opt/xchem-fragalysis-2/maxwin/BulkDock/SCRATCH/511022/C46407-P59/C46407-P59.minimised.mol

>  <scratch_subdir>  (508) 
/opt/xchem-fragalysis-2/maxwin/BulkDock/SCRATCH/511022/C46407-P59

>  <fragmenstein_runtime>  (508) 
15.548829317092896

>  <fragmenstein_outcome>  (508) 
too moved

>  <fragmenstein_mode>  (508) 
expansion

>  <fragmenstein_error>  (508) 


$$$$
C11897-P80
     RDKit          3D

 45 47  0  0  0  0  0  0  0  0999 V2000
    1.5246    0.3869   31.4873 C   0  0  0  0  0  0  0  0  0  0  0  0
    2.8349   -0.4328   30.9881 C   0  0  0  0  0  0  0  0  0  0  0  0
    2.4248   -1.9383   30.7081 C   0  0  0  0  0  0  0  0  0  0  0  0
    1.1267   -1.8392   30.1356 N   0  0  0  0  0  0  0  0  0  0  0  0
   -0.1603   -2.6057   30.4495 C   0  0  0  0  0  0  0  0  0  0  0  0
   -0.3503   -3.4945   31.1717 O   0  0  0  0  0  0  0  0  0  0  0  0
   -1.2216   -1.9119   29.6985 C   0  0  0  0  0  0  0  0  0  0  0  0
   -1.8313   -0.9365   30.4839 C   0  0  0  0  0  0  0  0  0  0  0  0
   -2.1175    0.2957   29.9154 C   0  0  0  0  0  0  0  0  0  0  0  0
   -1.8680    0.4951   28.5700 C   0  0  0  0  0  0  0  0  0  0  0  0
   -1.3832   -0.4622   27.7711 N   0  0  0  0  0  0  0  0  0  0  0  0
   -1.0452   -1.6380   28.3593 C   0  0  0  0  0  0  0  0  0  0  0  0
    3.4430    0.1505   29.7456 N   0  0  0  0  0  0  0  0  0  0  0  0
    3.0009    0.0333   28.2429 C   0  0  0  0  0  0  0  0  0  0  0  0
    2.0544   -0.4712   27.7669 O   0  0  0  0  0  0  0  0  0  0  0  0
    4.0419    0.7736   27.3401 C   0  0  0  0  0  0  0  0  0  0  0  0
    4.8502   -0.1638   26.4673 C   0  0  0  0  0  0  0  0  0  0  0  0
    6.0305   -0.6556   26.7911 N   0  0  0  0  0  0  0  0  0  0  0  0
    6.2498   -1.6516   25.8919 C   0  0  0  0  0  0  0  0  0  0  0  0
    5.2695   -1.6511   24.9072 C   0  0  0  0  0  0  0  0  0  0  0  0
    4.4413   -0.6336   25.2419 N   0  0  0  0  0  0  0  0  0  0  0  0
    3.9578   -0.4395   32.0211 C   0  0  0  0  0  0  0  0  0  0  0  0
    4.4672    0.8278   32.6688 C   0  0  0  0  0  0  0  0  0  0  0  0
    3.7466   -0.2012   33.4979 C   0  0  0  0  0  0  0  0  0  0  0  0
    1.8201    1.3705   31.8654 H   0  0  0  0  0  0  0  0  0  0  0  0
    1.0080   -0.1481   32.2901 H   0  0  0  0  0  0  0  0  0  0  0  0
    0.8394    0.5826   30.6585 H   0  0  0  0  0  0  0  0  0  0  0  0
    3.1018   -2.4334   30.0061 H   0  0  0  0  0  0  0  0  0  0  0  0
    2.3586   -2.5204   31.6325 H   0  0  0  0  0  0  0  0  0  0  0  0
    0.9493   -1.1669   29.3864 H   0  0  0  0  0  0  0  0  0  0  0  0
   -1.9119   -1.0666   31.5613 H   0  0  0  0  0  0  0  0  0  0  0  0
   -2.5019    1.0931   30.5295 H   0  0  0  0  0  0  0  0  0  0  0  0
   -2.0724    1.4508   28.0949 H   0  0  0  0  0  0  0  0  0  0  0  0
   -0.4576   -2.3093   27.7409 H   0  0  0  0  0  0  0  0  0  0  0  0
    4.3601    0.5802   29.7972 H   0  0  0  0  0  0  0  0  0  0  0  0
    3.4824    1.4790   26.7140 H   0  0  0  0  0  0  0  0  0  0  0  0
    4.7239    1.3736   27.9509 H   0  0  0  0  0  0  0  0  0  0  0  0
    7.1845   -2.1974   25.9629 H   0  0  0  0  0  0  0  0  0  0  0  0
    5.1056   -2.1399   23.9798 H   0  0  0  0  0  0  0  0  0  0  0  0
    3.6396   -0.3370   24.6971 H   0  0  0  0  0  0  0  0  0  0  0  0
    4.7199   -1.1696   31.7526 H   0  0  0  0  0  0  0  0  0  0  0  0
    5.5388    0.9281   32.8068 H   0  0  0  0  0  0  0  0  0  0  0  0
    3.9666    1.7674   32.4697 H   0  0  0  0  0  0  0  0  0  0  0  0
    4.3341   -0.7943   34.1914 H   0  0  0  0  0  0  0  0  0  0  0  0
    2.7633    0.0498   33.8751 H   0  0  0  0  0  0  0  0  0  0  0  0
  1  2  1  0
  2  3  1  0
  3  4  1  0
  4  5  1  0
  5  6  2  0
  5  7  1  0
  7  8  2  0
  8  9  1  0
  9 10  2  0
 10 11  1  0
 11 12  2  0
  2 13  1  0
 13 14  1  0
 14 15  2  0
 14 16  1  0
 16 17  1  0
 17 18  2  0
 18 19  1  0
 19 20  2  0
 20 21  1  0
  2 22  1  0
 22 23  1  0
 23 24  1  0
 12  7  1  0
 21 17  1  0
 24 22  1  0
  1 25  1  0
  1 26  1  0
  1 27  1  0
  3 28  1  0
  3 29  1  0
  4 30  1  0
  8 31  1  0
  9 32  1  0
 10 33  1  0
 12 34  1  0
 13 35  1  0
 16 36  1  0
 16 37  1  0
 19 38  1  0
 20 39  1  0
 21 40  1  0
 22 41  1  0
 23 42  1  0
 23 43  1  0
 24 44  1  0
 24 45  1  0
M  END
>  <Energy>  (509) 
114.4993963338145

>  <compound_id>  (509) 
11897

>  <target_id>  (509) 
1

>  <reference_id>  (509) 
80

>  <inspiration_ids>  (509) 
[80, 59]

>  <energy_score>  (509) 
14.406565329130785

>  <distance_score>  (509) 
8.440012479839663

>  <path>  (509) 
/opt/xchem-fragalysis-2/maxwin/BulkDock/SCRATCH/511022/C11897-P80/C11897-P80.minimised.mol

>  <scratch_subdir>  (509) 
/opt/xchem-fragalysis-2/maxwin/BulkDock/SCRATCH/511022/C11897-P80

>  <fragmenstein_runtime>  (509) 
18.173184871673584

>  <fragmenstein_outcome>  (509) 
too moved

>  <fragmenstein_mode>  (509) 
expansion

>  <fragmenstein_error>  (509) 


$$$$
C11897-P59
     RDKit          3D

 45 47  0  0  0  0  0  0  0  0999 V2000
    1.7289    1.5543   30.2477 C   0  0  0  0  0  0  0  0  0  0  0  0
    2.2025    0.2443   29.5509 C   0  0  0  0  0  0  0  0  0  0  0  0
    0.9044   -0.6216   29.4986 C   0  0  0  0  0  0  0  0  0  0  0  0
    0.8172   -1.7857   28.6461 N   0  0  0  0  0  0  0  0  0  0  0  0
    0.9242   -3.1772   28.9475 C   0  0  0  0  0  0  0  0  0  0  0  0
    1.1924   -3.7371   29.9659 O   0  0  0  0  0  0  0  0  0  0  0  0
    0.5387   -4.0050   27.8066 C   0  0  0  0  0  0  0  0  0  0  0  0
   -1.0186   -4.1219   27.4890 C   0  0  0  0  0  0  0  0  0  0  0  0
   -1.7380   -5.1333   26.1100 C   0  0  0  0  0  0  0  0  0  0  0  0
   -0.5585   -5.5749   24.9268 C   0  0  0  0  0  0  0  0  0  0  0  0
    1.0307   -5.4770   25.4831 N   0  0  0  0  0  0  0  0  0  0  0  0
    1.5046   -4.7695   26.9850 C   0  0  0  0  0  0  0  0  0  0  0  0
    2.7697    0.5349   28.2246 N   0  0  0  0  0  0  0  0  0  0  0  0
    3.6772    1.5787   27.7867 C   0  0  0  0  0  0  0  0  0  0  0  0
    4.1329    2.5185   28.3785 O   0  0  0  0  0  0  0  0  0  0  0  0
    4.0457    1.4354   26.2946 C   0  0  0  0  0  0  0  0  0  0  0  0
    4.8942    0.2354   26.0443 C   0  0  0  0  0  0  0  0  0  0  0  0
    5.9848   -0.1343   26.6864 N   0  0  0  0  0  0  0  0  0  0  0  0
    6.2156   -1.4282   26.3086 C   0  0  0  0  0  0  0  0  0  0  0  0
    5.2770   -1.8268   25.3890 C   0  0  0  0  0  0  0  0  0  0  0  0
    4.5892   -0.6884   25.0752 N   0  0  0  0  0  0  0  0  0  0  0  0
    3.3537   -0.3253   30.3683 C   0  0  0  0  0  0  0  0  0  0  0  0
    3.2590   -1.4754   31.3416 C   0  0  0  0  0  0  0  0  0  0  0  0
    3.9913   -1.6539   30.0390 C   0  0  0  0  0  0  0  0  0  0  0  0
    0.9886    2.0847   29.6378 H   0  0  0  0  0  0  0  0  0  0  0  0
    2.5603    2.2464   30.4204 H   0  0  0  0  0  0  0  0  0  0  0  0
    1.2855    1.3422   31.2278 H   0  0  0  0  0  0  0  0  0  0  0  0
    0.0820    0.0104   29.1376 H   0  0  0  0  0  0  0  0  0  0  0  0
    0.6229   -0.9403   30.5088 H   0  0  0  0  0  0  0  0  0  0  0  0
    0.4872   -1.6777   27.6895 H   0  0  0  0  0  0  0  0  0  0  0  0
   -1.5685   -3.8720   28.4042 H   0  0  0  0  0  0  0  0  0  0  0  0
   -2.3019   -6.0409   26.4400 H   0  0  0  0  0  0  0  0  0  0  0  0
   -0.7048   -6.2908   24.1227 H   0  0  0  0  0  0  0  0  0  0  0  0
    2.5788   -4.8425   27.1357 H   0  0  0  0  0  0  0  0  0  0  0  0
    2.6650   -0.1440   27.4827 H   0  0  0  0  0  0  0  0  0  0  0  0
    4.5947    2.3321   25.9840 H   0  0  0  0  0  0  0  0  0  0  0  0
    3.1207    1.4102   25.7132 H   0  0  0  0  0  0  0  0  0  0  0  0
    7.0269   -2.0107   26.7259 H   0  0  0  0  0  0  0  0  0  0  0  0
    5.1414   -2.7631   24.8755 H   0  0  0  0  0  0  0  0  0  0  0  0
    3.9263   -0.5613   24.3149 H   0  0  0  0  0  0  0  0  0  0  0  0
    4.0633    0.4629   30.6208 H   0  0  0  0  0  0  0  0  0  0  0  0
    3.8539   -1.4184   32.2474 H   0  0  0  0  0  0  0  0  0  0  0  0
    2.3320   -2.0158   31.4757 H   0  0  0  0  0  0  0  0  0  0  0  0
    5.0752   -1.7033   30.0611 H   0  0  0  0  0  0  0  0  0  0  0  0
    3.5492   -2.2803   29.2774 H   0  0  0  0  0  0  0  0  0  0  0  0
  1  2  1  0
  2  3  1  0
  3  4  1  0
  4  5  1  0
  5  6  2  0
  5  7  1  0
  7  8  2  0
  8  9  1  0
  9 10  2  0
 10 11  1  0
 11 12  2  0
  2 13  1  0
 13 14  1  0
 14 15  2  0
 14 16  1  0
 16 17  1  0
 17 18  2  0
 18 19  1  0
 19 20  2  0
 20 21  1  0
  2 22  1  0
 22 23  1  0
 23 24  1  0
 12  7  1  0
 21 17  1  0
 24 22  1  0
  1 25  1  0
  1 26  1  0
  1 27  1  0
  3 28  1  0
  3 29  1  0
  4 30  1  0
  8 31  1  0
  9 32  1  0
 10 33  1  0
 12 34  1  0
 13 35  1  0
 16 36  1  0
 16 37  1  0
 19 38  1  0
 20 39  1  0
 21 40  1  0
 22 41  1  0
 23 42  1  0
 23 43  1  0
 24 44  1  0
 24 45  1  0
M  END
>  <Energy>  (510) 
276.15589127543217

>  <compound_id>  (510) 
11897

>  <target_id>  (510) 
1

>  <reference_id>  (510) 
59

>  <inspiration_ids>  (510) 
[80, 59]

>  <energy_score>  (510) 
178.2477596452593

>  <distance_score>  (510) 
9.244185220340972

>  <path>  (510) 
/opt/xchem-fragalysis-2/maxwin/BulkDock/SCRATCH/511022/C11897-P59/C11897-P59.minimised.mol

>  <scratch_subdir>  (510) 
/opt/xchem-fragalysis-2/maxwin/BulkDock/SCRATCH/511022/C11897-P59

>  <fragmenstein_runtime>  (510) 
21.69704270362854

>  <fragmenstein_outcome>  (510) 
too moved

>  <fragmenstein_mode>  (510) 
expansion

>  <fragmenstein_error>  (510) 


$$$$
C8991-P80
     RDKit          3D

 42 44  0  0  0  0  0  0  0  0999 V2000
   -0.8824   -2.7747   30.6707 C   0  0  0  0  0  0  0  0  0  0  0  0
    0.5829   -2.6154   31.1396 C   0  0  0  0  0  0  0  0  0  0  0  0
    0.8279   -1.1500   31.6174 C   0  0  0  0  0  0  0  0  0  0  0  0
    0.5560   -0.1577   30.6112 N   0  0  0  0  0  0  0  0  0  0  0  0
   -0.6511    0.5024   30.2537 C   0  0  0  0  0  0  0  0  0  0  0  0
   -1.7397    0.4638   30.7480 O   0  0  0  0  0  0  0  0  0  0  0  0
   -0.4074    1.3027   29.0418 C   0  0  0  0  0  0  0  0  0  0  0  0
   -1.3948    1.8138   28.2224 C   0  0  0  0  0  0  0  0  0  0  0  0
   -0.6959    2.6367   26.8955 S   0  0  0  0  0  0  0  0  0  0  0  0
    0.8612    2.2675   27.5075 C   0  0  0  0  0  0  0  0  0  0  0  0
    0.8974    1.5781   28.6235 N   0  0  0  0  0  0  0  0  0  0  0  0
    1.5202   -2.9885   30.0626 N   0  0  0  0  0  0  0  0  0  0  0  0
    1.6807   -2.4684   28.7196 C   0  0  0  0  0  0  0  0  0  0  0  0
    1.0403   -1.6557   28.1147 O   0  0  0  0  0  0  0  0  0  0  0  0
    2.8360   -3.2052   28.0047 C   0  0  0  0  0  0  0  0  0  0  0  0
    3.7455   -2.2504   27.3012 C   0  0  0  0  0  0  0  0  0  0  0  0
    4.8801   -1.7646   27.7739 N   0  0  0  0  0  0  0  0  0  0  0  0
    5.3194   -0.8741   26.8383 C   0  0  0  0  0  0  0  0  0  0  0  0
    4.5234   -0.9289   25.7254 C   0  0  0  0  0  0  0  0  0  0  0  0
    3.5275   -1.8125   26.0171 N   0  0  0  0  0  0  0  0  0  0  0  0
    0.8174   -3.6561   32.2400 C   0  0  0  0  0  0  0  0  0  0  0  0
    0.5194   -3.4174   33.7020 C   0  0  0  0  0  0  0  0  0  0  0  0
    1.9457   -3.5620   33.2408 C   0  0  0  0  0  0  0  0  0  0  0  0
   -1.1070   -2.1732   29.7853 H   0  0  0  0  0  0  0  0  0  0  0  0
   -1.5866   -2.5064   31.4659 H   0  0  0  0  0  0  0  0  0  0  0  0
   -1.0783   -3.8152   30.3943 H   0  0  0  0  0  0  0  0  0  0  0  0
    1.8699   -1.0052   31.9194 H   0  0  0  0  0  0  0  0  0  0  0  0
    0.1841   -0.9129   32.4700 H   0  0  0  0  0  0  0  0  0  0  0  0
    1.2691    0.0505   29.9080 H   0  0  0  0  0  0  0  0  0  0  0  0
   -2.4646    1.7452   28.3427 H   0  0  0  0  0  0  0  0  0  0  0  0
    1.7610    2.5865   26.9975 H   0  0  0  0  0  0  0  0  0  0  0  0
    2.1964   -3.7262   30.2146 H   0  0  0  0  0  0  0  0  0  0  0  0
    2.3957   -3.9193   27.3018 H   0  0  0  0  0  0  0  0  0  0  0  0
    3.4380   -3.7862   28.7114 H   0  0  0  0  0  0  0  0  0  0  0  0
    6.1979   -0.2682   27.0146 H   0  0  0  0  0  0  0  0  0  0  0  0
    4.5600   -0.4271   24.7767 H   0  0  0  0  0  0  0  0  0  0  0  0
    2.7380   -2.0585   25.4231 H   0  0  0  0  0  0  0  0  0  0  0  0
    0.5884   -4.6567   31.8756 H   0  0  0  0  0  0  0  0  0  0  0  0
    0.0780   -4.2352   34.2642 H   0  0  0  0  0  0  0  0  0  0  0  0
    0.1884   -2.4453   34.0449 H   0  0  0  0  0  0  0  0  0  0  0  0
    2.5788   -2.6836   33.2650 H   0  0  0  0  0  0  0  0  0  0  0  0
    2.4688   -4.4763   33.5020 H   0  0  0  0  0  0  0  0  0  0  0  0
  1  2  1  0
  2  3  1  0
  3  4  1  0
  4  5  1  0
  5  6  2  0
  5  7  1  0
  7  8  2  0
  8  9  1  0
  9 10  1  0
 10 11  2  0
  2 12  1  0
 12 13  1  0
 13 14  2  0
 13 15  1  0
 15 16  1  0
 16 17  2  0
 17 18  1  0
 18 19  2  0
 19 20  1  0
  2 21  1  0
 21 22  1  0
 22 23  1  0
 11  7  1  0
 20 16  1  0
 23 21  1  0
  1 24  1  0
  1 25  1  0
  1 26  1  0
  3 27  1  0
  3 28  1  0
  4 29  1  0
  8 30  1  0
 10 31  1  0
 12 32  1  0
 15 33  1  0
 15 34  1  0
 18 35  1  0
 19 36  1  0
 20 37  1  0
 21 38  1  0
 22 39  1  0
 22 40  1  0
 23 41  1  0
 23 42  1  0
M  END
>  <Energy>  (511) 
53.883332832884271

>  <compound_id>  (511) 
8991

>  <target_id>  (511) 
1

>  <reference_id>  (511) 
80

>  <inspiration_ids>  (511) 
[80, 59]

>  <energy_score>  (511) 
-92.64462084805473

>  <distance_score>  (511) 
9.007323030510397

>  <path>  (511) 
/opt/xchem-fragalysis-2/maxwin/BulkDock/SCRATCH/511022/C8991-P80/C8991-P80.minimised.mol

>  <scratch_subdir>  (511) 
/opt/xchem-fragalysis-2/maxwin/BulkDock/SCRATCH/511022/C8991-P80

>  <fragmenstein_runtime>  (511) 
29.35469937324524

>  <fragmenstein_outcome>  (511) 
too moved

>  <fragmenstein_mode>  (511) 
expansion

>  <fragmenstein_error>  (511) 


$$$$
C8991-P59
     RDKit          3D

 42 44  0  0  0  0  0  0  0  0999 V2000
    4.8985    1.2630   28.8629 C   0  0  0  0  0  0  0  0  0  0  0  0
    5.0020    1.0874   27.3245 C   0  0  0  0  0  0  0  0  0  0  0  0
    4.1372   -0.1520   26.9157 C   0  0  0  0  0  0  0  0  0  0  0  0
    2.8425   -0.2514   27.5509 N   0  0  0  0  0  0  0  0  0  0  0  0
    2.1194   -1.3814   28.0258 C   0  0  0  0  0  0  0  0  0  0  0  0
    2.4281   -2.5342   28.0944 O   0  0  0  0  0  0  0  0  0  0  0  0
    0.7755   -0.9397   28.4521 C   0  0  0  0  0  0  0  0  0  0  0  0
   -0.1979   -1.7698   28.9778 C   0  0  0  0  0  0  0  0  0  0  0  0
   -1.6201   -0.8770   29.3074 S   0  0  0  0  0  0  0  0  0  0  0  0
   -0.8654    0.5305   28.6901 C   0  0  0  0  0  0  0  0  0  0  0  0
    0.3891    0.4019   28.3206 N   0  0  0  0  0  0  0  0  0  0  0  0
    6.4087    0.7963   26.9317 N   0  0  0  0  0  0  0  0  0  0  0  0
    7.5506    1.6783   26.7499 C   0  0  0  0  0  0  0  0  0  0  0  0
    7.6299    2.8763   26.7933 O   0  0  0  0  0  0  0  0  0  0  0  0
    8.8264    0.8468   26.4723 C   0  0  0  0  0  0  0  0  0  0  0  0
    9.7147    1.4021   25.3889 C   0  0  0  0  0  0  0  0  0  0  0  0
   10.5371    0.6945   24.6390 N   0  0  0  0  0  0  0  0  0  0  0  0
   11.1900    1.5849   23.8246 C   0  0  0  0  0  0  0  0  0  0  0  0
   10.7428    2.8595   24.0577 C   0  0  0  0  0  0  0  0  0  0  0  0
    9.8179    2.7345   25.0607 N   0  0  0  0  0  0  0  0  0  0  0  0
    4.5868    2.3989   26.6661 C   0  0  0  0  0  0  0  0  0  0  0  0
    4.3320    2.5314   25.1825 C   0  0  0  0  0  0  0  0  0  0  0  0
    3.2017    2.7241   26.1527 C   0  0  0  0  0  0  0  0  0  0  0  0
    5.1659    0.3363   29.3831 H   0  0  0  0  0  0  0  0  0  0  0  0
    5.5905    2.0392   29.2111 H   0  0  0  0  0  0  0  0  0  0  0  0
    3.8924    1.5647   29.1736 H   0  0  0  0  0  0  0  0  0  0  0  0
    3.9730   -0.1871   25.8342 H   0  0  0  0  0  0  0  0  0  0  0  0
    4.6709   -1.0767   27.1699 H   0  0  0  0  0  0  0  0  0  0  0  0
    2.2303    0.5635   27.5666 H   0  0  0  0  0  0  0  0  0  0  0  0
   -0.1384   -2.8326   29.1629 H   0  0  0  0  0  0  0  0  0  0  0  0
   -1.3944    1.4720   28.6153 H   0  0  0  0  0  0  0  0  0  0  0  0
    6.7267   -0.1668   26.9079 H   0  0  0  0  0  0  0  0  0  0  0  0
    8.5656   -0.1792   26.1901 H   0  0  0  0  0  0  0  0  0  0  0  0
    9.3918    0.7965   27.4098 H   0  0  0  0  0  0  0  0  0  0  0  0
   11.9450    1.2571   23.1230 H   0  0  0  0  0  0  0  0  0  0  0  0
   11.0025    3.8165   23.6300 H   0  0  0  0  0  0  0  0  0  0  0  0
    9.2815    3.4756   25.4995 H   0  0  0  0  0  0  0  0  0  0  0  0
    5.1152    3.2337   27.1255 H   0  0  0  0  0  0  0  0  0  0  0  0
    4.3284    1.6472   24.5573 H   0  0  0  0  0  0  0  0  0  0  0  0
    4.7019    3.4188   24.6814 H   0  0  0  0  0  0  0  0  0  0  0  0
    2.4108    1.9921   26.1286 H   0  0  0  0  0  0  0  0  0  0  0  0
    2.8372    3.7356   26.3059 H   0  0  0  0  0  0  0  0  0  0  0  0
  1  2  1  0
  2  3  1  0
  3  4  1  0
  4  5  1  0
  5  6  2  0
  5  7  1  0
  7  8  2  0
  8  9  1  0
  9 10  1  0
 10 11  2  0
  2 12  1  0
 12 13  1  0
 13 14  2  0
 13 15  1  0
 15 16  1  0
 16 17  2  0
 17 18  1  0
 18 19  2  0
 19 20  1  0
  2 21  1  0
 21 22  1  0
 22 23  1  0
 11  7  1  0
 20 16  1  0
 23 21  1  0
  1 24  1  0
  1 25  1  0
  1 26  1  0
  3 27  1  0
  3 28  1  0
  4 29  1  0
  8 30  1  0
 10 31  1  0
 12 32  1  0
 15 33  1  0
 15 34  1  0
 18 35  1  0
 19 36  1  0
 20 37  1  0
 21 38  1  0
 22 39  1  0
 22 40  1  0
 23 41  1  0
 23 42  1  0
M  END
>  <Energy>  (512) 
58.667838634107419

>  <compound_id>  (512) 
8991

>  <target_id>  (512) 
1

>  <reference_id>  (512) 
59

>  <inspiration_ids>  (512) 
[80, 59]

>  <energy_score>  (512) 
-87.86011504682898

>  <distance_score>  (512) 
9.535841285549413

>  <path>  (512) 
/opt/xchem-fragalysis-2/maxwin/BulkDock/SCRATCH/511022/C8991-P59/C8991-P59.minimised.mol

>  <scratch_subdir>  (512) 
/opt/xchem-fragalysis-2/maxwin/BulkDock/SCRATCH/511022/C8991-P59

>  <fragmenstein_runtime>  (512) 
25.125990390777588

>  <fragmenstein_outcome>  (512) 
too moved

>  <fragmenstein_mode>  (512) 
expansion

>  <fragmenstein_error>  (512) 


$$$$
C9626-P80
     RDKit          3D

 45 47  0  0  0  0  0  0  0  0999 V2000
    5.5724   -0.4366   26.9893 C   0  0  0  0  0  0  0  0  0  0  0  0
    4.3032   -0.2167   26.1247 C   0  0  0  0  0  0  0  0  0  0  0  0
    3.8166    1.1805   26.6811 C   0  0  0  0  0  0  0  0  0  0  0  0
    2.4291    1.5205   26.6558 N   0  0  0  0  0  0  0  0  0  0  0  0
    1.7790    2.7708   26.4819 C   0  0  0  0  0  0  0  0  0  0  0  0
    2.2201    3.8522   26.2320 O   0  0  0  0  0  0  0  0  0  0  0  0
    0.3059    2.6307   26.7726 C   0  0  0  0  0  0  0  0  0  0  0  0
   -0.5377    3.7164   26.6187 C   0  0  0  0  0  0  0  0  0  0  0  0
   -1.8830    3.5329   26.8917 C   0  0  0  0  0  0  0  0  0  0  0  0
   -2.3304    2.2843   27.3027 C   0  0  0  0  0  0  0  0  0  0  0  0
   -1.4169    1.2598   27.4702 C   0  0  0  0  0  0  0  0  0  0  0  0
   -0.1042    1.3964   27.2078 N   0  0  0  0  0  0  0  0  0  0  0  0
    4.6283   -0.3649   24.6001 N   0  0  0  0  0  0  0  0  0  0  0  0
    5.2005   -1.4959   23.8242 C   0  0  0  0  0  0  0  0  0  0  0  0
    5.6035   -2.5050   24.2520 O   0  0  0  0  0  0  0  0  0  0  0  0
    5.5064   -1.4280   21.8432 C   0  0  0  0  0  0  0  0  0  0  0  0
    6.9216   -0.5222   20.6937 C   0  0  0  0  0  0  0  0  0  0  0  0
    7.5000    0.7359   20.5321 N   0  0  0  0  0  0  0  0  0  0  0  0
    7.2825    1.1355   19.0101 C   0  0  0  0  0  0  0  0  0  0  0  0
    7.5338   -0.0190   18.3810 C   0  0  0  0  0  0  0  0  0  0  0  0
    7.6009   -0.8523   19.5136 N   0  0  0  0  0  0  0  0  0  0  0  0
    3.2969   -1.3121   26.4478 C   0  0  0  0  0  0  0  0  0  0  0  0
    3.5209   -2.4899   27.3809 C   0  0  0  0  0  0  0  0  0  0  0  0
    2.5392   -1.4265   27.7590 C   0  0  0  0  0  0  0  0  0  0  0  0
    6.1199   -1.3384   26.7230 H   0  0  0  0  0  0  0  0  0  0  0  0
    6.2715    0.4014   26.8808 H   0  0  0  0  0  0  0  0  0  0  0  0
    5.3474   -0.5069   28.0605 H   0  0  0  0  0  0  0  0  0  0  0  0
    4.3978    2.0400   26.3503 H   0  0  0  0  0  0  0  0  0  0  0  0
    4.0013    1.1834   27.7659 H   0  0  0  0  0  0  0  0  0  0  0  0
    1.7394    0.8257   26.9442 H   0  0  0  0  0  0  0  0  0  0  0  0
   -0.1588    4.6815   26.2983 H   0  0  0  0  0  0  0  0  0  0  0  0
   -2.5821    4.3613   26.7978 H   0  0  0  0  0  0  0  0  0  0  0  0
   -3.3832    2.1484   27.4996 H   0  0  0  0  0  0  0  0  0  0  0  0
   -1.7269    0.2785   27.8175 H   0  0  0  0  0  0  0  0  0  0  0  0
    4.2873    0.3389   23.9434 H   0  0  0  0  0  0  0  0  0  0  0  0
    4.7898   -0.5926   21.8086 H   0  0  0  0  0  0  0  0  0  0  0  0
    5.5155   -2.4528   21.4439 H   0  0  0  0  0  0  0  0  0  0  0  0
    7.3685    2.1406   18.6149 H   0  0  0  0  0  0  0  0  0  0  0  0
    7.8860   -0.1622   17.3627 H   0  0  0  0  0  0  0  0  0  0  0  0
    8.5357   -1.1249   19.6929 H   0  0  0  0  0  0  0  0  0  0  0  0
    2.7703   -1.5572   25.5438 H   0  0  0  0  0  0  0  0  0  0  0  0
    4.4112   -2.5714   27.9874 H   0  0  0  0  0  0  0  0  0  0  0  0
    3.1408   -3.4497   27.0451 H   0  0  0  0  0  0  0  0  0  0  0  0
    1.4836   -1.6695   27.7024 H   0  0  0  0  0  0  0  0  0  0  0  0
    2.8007   -0.7845   28.5910 H   0  0  0  0  0  0  0  0  0  0  0  0
  1  2  1  0
  2  3  1  0
  3  4  1  0
  4  5  1  0
  5  6  2  0
  5  7  1  0
  7  8  2  0
  8  9  1  0
  9 10  2  0
 10 11  1  0
 11 12  2  0
  2 13  1  0
 13 14  1  0
 14 15  2  0
 14 16  1  0
 16 17  1  0
 17 18  2  0
 18 19  1  0
 19 20  2  0
 20 21  1  0
  2 22  1  0
 22 23  1  0
 23 24  1  0
 12  7  1  0
 21 17  1  0
 24 22  1  0
  1 25  1  0
  1 26  1  0
  1 27  1  0
  3 28  1  0
  3 29  1  0
  4 30  1  0
  8 31  1  0
  9 32  1  0
 10 33  1  0
 11 34  1  0
 13 35  1  0
 16 36  1  0
 16 37  1  0
 19 38  1  0
 20 39  1  0
 21 40  1  0
 22 41  1  0
 23 42  1  0
 23 43  1  0
 24 44  1  0
 24 45  1  0
M  END
>  <Energy>  (513) 
353.28579646407098

>  <compound_id>  (513) 
9626

>  <target_id>  (513) 
1

>  <reference_id>  (513) 
80

>  <inspiration_ids>  (513) 
[80, 59]

>  <energy_score>  (513) 
228.71307465646424

>  <distance_score>  (513) 
9.019181542140755

>  <path>  (513) 
/opt/xchem-fragalysis-2/maxwin/BulkDock/SCRATCH/511022/C9626-P80/C9626-P80.minimised.mol

>  <scratch_subdir>  (513) 
/opt/xchem-fragalysis-2/maxwin/BulkDock/SCRATCH/511022/C9626-P80

>  <fragmenstein_runtime>  (513) 
21.822689056396484

>  <fragmenstein_outcome>  (513) 
too moved

>  <fragmenstein_mode>  (513) 
expansion

>  <fragmenstein_error>  (513) 


$$$$
C9626-P59
     RDKit          3D

 45 47  0  0  0  0  0  0  0  0999 V2000
    3.8609   -2.9008   31.9341 C   0  0  0  0  0  0  0  0  0  0  0  0
    3.3436   -1.8206   30.9600 C   0  0  0  0  0  0  0  0  0  0  0  0
    2.0991   -2.4677   30.2915 C   0  0  0  0  0  0  0  0  0  0  0  0
    1.3124   -1.6222   29.4430 N   0  0  0  0  0  0  0  0  0  0  0  0
   -0.0682   -1.6703   29.0973 C   0  0  0  0  0  0  0  0  0  0  0  0
   -0.9124   -2.4743   29.3624 O   0  0  0  0  0  0  0  0  0  0  0  0
   -0.4612   -0.4255   28.3428 C   0  0  0  0  0  0  0  0  0  0  0  0
   -1.7270   -0.3008   27.7949 C   0  0  0  0  0  0  0  0  0  0  0  0
   -2.0632    0.9198   27.2189 C   0  0  0  0  0  0  0  0  0  0  0  0
   -1.1384    1.9590   27.2138 C   0  0  0  0  0  0  0  0  0  0  0  0
    0.1067    1.7383   27.7747 C   0  0  0  0  0  0  0  0  0  0  0  0
    0.4745    0.5696   28.3351 N   0  0  0  0  0  0  0  0  0  0  0  0
    4.3813   -1.4876   29.9749 N   0  0  0  0  0  0  0  0  0  0  0  0
    5.0831   -2.3139   29.0235 C   0  0  0  0  0  0  0  0  0  0  0  0
    4.9430   -3.4713   28.7383 O   0  0  0  0  0  0  0  0  0  0  0  0
    6.2092   -1.5221   28.3255 C   0  0  0  0  0  0  0  0  0  0  0  0
    5.7647   -1.1000   26.9689 C   0  0  0  0  0  0  0  0  0  0  0  0
    5.5247    0.1349   26.5705 N   0  0  0  0  0  0  0  0  0  0  0  0
    4.9161    0.0131   25.3539 C   0  0  0  0  0  0  0  0  0  0  0  0
    4.8443   -1.3071   24.9881 C   0  0  0  0  0  0  0  0  0  0  0  0
    5.4977   -1.9973   25.9638 N   0  0  0  0  0  0  0  0  0  0  0  0
    3.1140   -0.5668   31.8053 C   0  0  0  0  0  0  0  0  0  0  0  0
    2.5936    0.7410   31.2573 C   0  0  0  0  0  0  0  0  0  0  0  0
    1.7530   -0.0565   32.2178 C   0  0  0  0  0  0  0  0  0  0  0  0
    4.0587   -3.8481   31.4192 H   0  0  0  0  0  0  0  0  0  0  0  0
    4.8035   -2.5940   32.4038 H   0  0  0  0  0  0  0  0  0  0  0  0
    3.1412   -3.0950   32.7381 H   0  0  0  0  0  0  0  0  0  0  0  0
    2.3908   -3.3274   29.6770 H   0  0  0  0  0  0  0  0  0  0  0  0
    1.4141   -2.8542   31.0568 H   0  0  0  0  0  0  0  0  0  0  0  0
    1.7452   -0.8281   28.9698 H   0  0  0  0  0  0  0  0  0  0  0  0
   -2.4286   -1.1281   27.8229 H   0  0  0  0  0  0  0  0  0  0  0  0
   -3.0481    1.0766   26.7902 H   0  0  0  0  0  0  0  0  0  0  0  0
   -1.3900    2.9262   26.7903 H   0  0  0  0  0  0  0  0  0  0  0  0
    0.8576    2.5237   27.7913 H   0  0  0  0  0  0  0  0  0  0  0  0
    4.7119   -0.5315   29.8902 H   0  0  0  0  0  0  0  0  0  0  0  0
    6.5061   -0.6527   28.9212 H   0  0  0  0  0  0  0  0  0  0  0  0
    7.0906   -2.1705   28.2584 H   0  0  0  0  0  0  0  0  0  0  0  0
    4.5607    0.8736   24.8019 H   0  0  0  0  0  0  0  0  0  0  0  0
    4.4595   -1.7733   24.0978 H   0  0  0  0  0  0  0  0  0  0  0  0
    5.6689   -2.9963   25.9929 H   0  0  0  0  0  0  0  0  0  0  0  0
    3.9128   -0.4512   32.5372 H   0  0  0  0  0  0  0  0  0  0  0  0
    2.2804    0.8085   30.2258 H   0  0  0  0  0  0  0  0  0  0  0  0
    3.0407    1.6594   31.6241 H   0  0  0  0  0  0  0  0  0  0  0  0
    0.8525   -0.5193   31.8345 H   0  0  0  0  0  0  0  0  0  0  0  0
    1.6419    0.3235   33.2280 H   0  0  0  0  0  0  0  0  0  0  0  0
  1  2  1  0
  2  3  1  0
  3  4  1  0
  4  5  1  0
  5  6  2  0
  5  7  1  0
  7  8  2  0
  8  9  1  0
  9 10  2  0
 10 11  1  0
 11 12  2  0
  2 13  1  0
 13 14  1  0
 14 15  2  0
 14 16  1  0
 16 17  1  0
 17 18  2  0
 18 19  1  0
 19 20  2  0
 20 21  1  0
  2 22  1  0
 22 23  1  0
 23 24  1  0
 12  7  1  0
 21 17  1  0
 24 22  1  0
  1 25  1  0
  1 26  1  0
  1 27  1  0
  3 28  1  0
  3 29  1  0
  4 30  1  0
  8 31  1  0
  9 32  1  0
 10 33  1  0
 11 34  1  0
 13 35  1  0
 16 36  1  0
 16 37  1  0
 19 38  1  0
 20 39  1  0
 21 40  1  0
 22 41  1  0
 23 42  1  0
 23 43  1  0
 24 44  1  0
 24 45  1  0
M  END
>  <Energy>  (514) 
85.488975241810451

>  <compound_id>  (514) 
9626

>  <target_id>  (514) 
1

>  <reference_id>  (514) 
59

>  <inspiration_ids>  (514) 
[80, 59]

>  <energy_score>  (514) 
-39.0837465658023

>  <distance_score>  (514) 
8.961126541764425

>  <path>  (514) 
/opt/xchem-fragalysis-2/maxwin/BulkDock/SCRATCH/511022/C9626-P59/C9626-P59.minimised.mol

>  <scratch_subdir>  (514) 
/opt/xchem-fragalysis-2/maxwin/BulkDock/SCRATCH/511022/C9626-P59

>  <fragmenstein_runtime>  (514) 
26.285839080810547

>  <fragmenstein_outcome>  (514) 
too moved

>  <fragmenstein_mode>  (514) 
expansion

>  <fragmenstein_error>  (514) 


$$$$
C11945-P80
     RDKit          3D

 45 47  0  0  0  0  0  0  0  0999 V2000
    5.0076    0.3260   27.3432 C   0  0  0  0  0  0  0  0  0  0  0  0
    5.6239    1.5585   28.0541 C   0  0  0  0  0  0  0  0  0  0  0  0
    5.5792    1.2607   29.5919 C   0  0  0  0  0  0  0  0  0  0  0  0
    4.2198    0.9541   30.0377 N   0  0  0  0  0  0  0  0  0  0  0  0
    3.5643   -0.2976   30.2565 C   0  0  0  0  0  0  0  0  0  0  0  0
    3.9816   -1.4164   30.2085 O   0  0  0  0  0  0  0  0  0  0  0  0
    2.0882   -0.1581   30.4860 C   0  0  0  0  0  0  0  0  0  0  0  0
    1.4558   -1.0006   31.3977 C   0  0  0  0  0  0  0  0  0  0  0  0
    0.0811   -0.9036   31.5286 C   0  0  0  0  0  0  0  0  0  0  0  0
   -0.6870   -0.0474   30.8177 N   0  0  0  0  0  0  0  0  0  0  0  0
   -0.0547    0.7302   29.9155 C   0  0  0  0  0  0  0  0  0  0  0  0
    1.3140    0.7115   29.7112 C   0  0  0  0  0  0  0  0  0  0  0  0
    6.9912    1.8677   27.5577 N   0  0  0  0  0  0  0  0  0  0  0  0
    8.1507    1.0125   27.3586 C   0  0  0  0  0  0  0  0  0  0  0  0
    8.2745   -0.1756   27.4701 O   0  0  0  0  0  0  0  0  0  0  0  0
    9.3937    1.8811   26.9933 C   0  0  0  0  0  0  0  0  0  0  0  0
   10.1186    1.4717   25.7342 C   0  0  0  0  0  0  0  0  0  0  0  0
   10.2269    2.1779   24.6172 N   0  0  0  0  0  0  0  0  0  0  0  0
   11.0699    1.4672   23.7943 C   0  0  0  0  0  0  0  0  0  0  0  0
   11.4865    0.3187   24.4168 C   0  0  0  0  0  0  0  0  0  0  0  0
   10.8455    0.3064   25.6248 N   0  0  0  0  0  0  0  0  0  0  0  0
    4.7716    2.7954   27.6675 C   0  0  0  0  0  0  0  0  0  0  0  0
    4.0957    3.7545   28.6352 C   0  0  0  0  0  0  0  0  0  0  0  0
    5.2823    4.2168   27.8539 C   0  0  0  0  0  0  0  0  0  0  0  0
    5.1067    0.4057   26.2604 H   0  0  0  0  0  0  0  0  0  0  0  0
    3.9363    0.2206   27.5424 H   0  0  0  0  0  0  0  0  0  0  0  0
    5.5128   -0.5992   27.6409 H   0  0  0  0  0  0  0  0  0  0  0  0
    5.9367    2.1176   30.1715 H   0  0  0  0  0  0  0  0  0  0  0  0
    6.2152    0.4003   29.8286 H   0  0  0  0  0  0  0  0  0  0  0  0
    3.5359    1.6960   30.0823 H   0  0  0  0  0  0  0  0  0  0  0  0
    2.0203   -1.7223   31.9788 H   0  0  0  0  0  0  0  0  0  0  0  0
   -0.4567   -1.5371   32.2292 H   0  0  0  0  0  0  0  0  0  0  0  0
   -0.6994    1.3802   29.3299 H   0  0  0  0  0  0  0  0  0  0  0  0
    1.7448    1.3253   28.9283 H   0  0  0  0  0  0  0  0  0  0  0  0
    7.2716    2.8332   27.4550 H   0  0  0  0  0  0  0  0  0  0  0  0
    9.1217    2.9372   26.8927 H   0  0  0  0  0  0  0  0  0  0  0  0
   10.0830    1.8203   27.8447 H   0  0  0  0  0  0  0  0  0  0  0  0
   11.3417    1.8263   22.8106 H   0  0  0  0  0  0  0  0  0  0  0  0
   12.1429   -0.4822   24.1063 H   0  0  0  0  0  0  0  0  0  0  0  0
   10.8969   -0.4219   26.3255 H   0  0  0  0  0  0  0  0  0  0  0  0
    4.2437    2.6214   26.7319 H   0  0  0  0  0  0  0  0  0  0  0  0
    4.2398    3.6957   29.7065 H   0  0  0  0  0  0  0  0  0  0  0  0
    3.1248    4.1518   28.3544 H   0  0  0  0  0  0  0  0  0  0  0  0
    6.1827    4.4132   28.4246 H   0  0  0  0  0  0  0  0  0  0  0  0
    5.1166    4.9207   27.0444 H   0  0  0  0  0  0  0  0  0  0  0  0
  1  2  1  0
  2  3  1  0
  3  4  1  0
  4  5  1  0
  5  6  2  0
  5  7  1  0
  7  8  2  0
  8  9  1  0
  9 10  2  0
 10 11  1  0
 11 12  2  0
  2 13  1  0
 13 14  1  0
 14 15  2  0
 14 16  1  0
 16 17  1  0
 17 18  2  0
 18 19  1  0
 19 20  2  0
 20 21  1  0
  2 22  1  0
 22 23  1  0
 23 24  1  0
 12  7  1  0
 21 17  1  0
 24 22  1  0
  1 25  1  0
  1 26  1  0
  1 27  1  0
  3 28  1  0
  3 29  1  0
  4 30  1  0
  8 31  1  0
  9 32  1  0
 11 33  1  0
 12 34  1  0
 13 35  1  0
 16 36  1  0
 16 37  1  0
 19 38  1  0
 20 39  1  0
 21 40  1  0
 22 41  1  0
 23 42  1  0
 23 43  1  0
 24 44  1  0
 24 45  1  0
M  END
>  <Energy>  (515) 
52.999672095748949

>  <compound_id>  (515) 
11945

>  <target_id>  (515) 
1

>  <reference_id>  (515) 
80

>  <inspiration_ids>  (515) 
[80, 59]

>  <energy_score>  (515) 
-40.81500927942113

>  <distance_score>  (515) 
9.331779669249064

>  <path>  (515) 
/opt/xchem-fragalysis-2/maxwin/BulkDock/SCRATCH/511022/C11945-P80/C11945-P80.minimised.mol

>  <scratch_subdir>  (515) 
/opt/xchem-fragalysis-2/maxwin/BulkDock/SCRATCH/511022/C11945-P80

>  <fragmenstein_runtime>  (515) 
27.825782299041748

>  <fragmenstein_outcome>  (515) 
too moved

>  <fragmenstein_mode>  (515) 
expansion

>  <fragmenstein_error>  (515) 


$$$$
C11945-P59
     RDKit          3D

 45 47  0  0  0  0  0  0  0  0999 V2000
    2.9572   -4.6687   27.3684 C   0  0  0  0  0  0  0  0  0  0  0  0
    4.6211   -4.6933   27.3146 C   0  0  0  0  0  0  0  0  0  0  0  0
    5.0379   -3.1840   27.6517 C   0  0  0  0  0  0  0  0  0  0  0  0
    3.9525   -2.4515   28.3627 N   0  0  0  0  0  0  0  0  0  0  0  0
    3.0677   -1.2694   27.8998 C   0  0  0  0  0  0  0  0  0  0  0  0
    3.1038   -0.6366   26.9205 O   0  0  0  0  0  0  0  0  0  0  0  0
    1.9231   -0.9717   28.8352 C   0  0  0  0  0  0  0  0  0  0  0  0
    0.6356   -0.9342   28.2763 C   0  0  0  0  0  0  0  0  0  0  0  0
   -0.4479   -0.6145   29.0671 C   0  0  0  0  0  0  0  0  0  0  0  0
   -0.3313   -0.3270   30.3726 N   0  0  0  0  0  0  0  0  0  0  0  0
    0.9155   -0.3516   30.8967 C   0  0  0  0  0  0  0  0  0  0  0  0
    2.0629   -0.6770   30.1845 C   0  0  0  0  0  0  0  0  0  0  0  0
    5.2547   -5.2188   25.9634 N   0  0  0  0  0  0  0  0  0  0  0  0
    6.8074   -5.4844   25.5625 C   0  0  0  0  0  0  0  0  0  0  0  0
    7.8058   -5.2668   26.1710 O   0  0  0  0  0  0  0  0  0  0  0  0
    6.9261   -6.2710   24.1305 C   0  0  0  0  0  0  0  0  0  0  0  0
    8.1477   -6.0221   23.0667 C   0  0  0  0  0  0  0  0  0  0  0  0
    8.0729   -5.8901   21.7298 N   0  0  0  0  0  0  0  0  0  0  0  0
    9.3626   -5.8138   21.2676 C   0  0  0  0  0  0  0  0  0  0  0  0
   10.2688   -5.8423   22.2877 C   0  0  0  0  0  0  0  0  0  0  0  0
    9.4997   -5.9866   23.4188 N   0  0  0  0  0  0  0  0  0  0  0  0
    5.0082   -5.6087   28.4865 C   0  0  0  0  0  0  0  0  0  0  0  0
    4.5738   -7.0613   28.4891 C   0  0  0  0  0  0  0  0  0  0  0  0
    6.0329   -6.7228   28.4797 C   0  0  0  0  0  0  0  0  0  0  0  0
    2.5757   -4.5647   28.3883 H   0  0  0  0  0  0  0  0  0  0  0  0
    2.6099   -3.8626   26.7317 H   0  0  0  0  0  0  0  0  0  0  0  0
    2.5951   -5.6134   26.9539 H   0  0  0  0  0  0  0  0  0  0  0  0
    5.9390   -3.1442   28.2708 H   0  0  0  0  0  0  0  0  0  0  0  0
    5.2191   -2.6409   26.7183 H   0  0  0  0  0  0  0  0  0  0  0  0
    3.6974   -2.7157   29.3066 H   0  0  0  0  0  0  0  0  0  0  0  0
    0.4822   -1.1180   27.2228 H   0  0  0  0  0  0  0  0  0  0  0  0
   -1.4520   -0.5709   28.6551 H   0  0  0  0  0  0  0  0  0  0  0  0
    0.9741   -0.0897   31.9503 H   0  0  0  0  0  0  0  0  0  0  0  0
    3.0357   -0.6518   30.6609 H   0  0  0  0  0  0  0  0  0  0  0  0
    4.6481   -5.5978   25.2470 H   0  0  0  0  0  0  0  0  0  0  0  0
    7.0100   -7.3324   24.4020 H   0  0  0  0  0  0  0  0  0  0  0  0
    5.9884   -6.1691   23.5993 H   0  0  0  0  0  0  0  0  0  0  0  0
    9.5931   -5.7366   20.2332 H   0  0  0  0  0  0  0  0  0  0  0  0
   11.3471   -5.7807   22.3215 H   0  0  0  0  0  0  0  0  0  0  0  0
    9.8314   -6.0247   24.3748 H   0  0  0  0  0  0  0  0  0  0  0  0
    4.8882   -5.0859   29.4332 H   0  0  0  0  0  0  0  0  0  0  0  0
    4.1605   -7.4920   27.5842 H   0  0  0  0  0  0  0  0  0  0  0  0
    4.1533   -7.4653   29.4029 H   0  0  0  0  0  0  0  0  0  0  0  0
    6.5872   -6.9872   27.5924 H   0  0  0  0  0  0  0  0  0  0  0  0
    6.6018   -6.8820   29.3903 H   0  0  0  0  0  0  0  0  0  0  0  0
  1  2  1  0
  2  3  1  0
  3  4  1  0
  4  5  1  0
  5  6  2  0
  5  7  1  0
  7  8  2  0
  8  9  1  0
  9 10  2  0
 10 11  1  0
 11 12  2  0
  2 13  1  0
 13 14  1  0
 14 15  2  0
 14 16  1  0
 16 17  1  0
 17 18  2  0
 18 19  1  0
 19 20  2  0
 20 21  1  0
  2 22  1  0
 22 23  1  0
 23 24  1  0
 12  7  1  0
 21 17  1  0
 24 22  1  0
  1 25  1  0
  1 26  1  0
  1 27  1  0
  3 28  1  0
  3 29  1  0
  4 30  1  0
  8 31  1  0
  9 32  1  0
 11 33  1  0
 12 34  1  0
 13 35  1  0
 16 36  1  0
 16 37  1  0
 19 38  1  0
 20 39  1  0
 21 40  1  0
 22 41  1  0
 23 42  1  0
 23 43  1  0
 24 44  1  0
 24 45  1  0
M  END
>  <Energy>  (516) 
111.22333733619546

>  <compound_id>  (516) 
11945

>  <target_id>  (516) 
1

>  <reference_id>  (516) 
59

>  <inspiration_ids>  (516) 
[80, 59]

>  <energy_score>  (516) 
33.91115342802527

>  <distance_score>  (516) 
9.003386514298755

>  <path>  (516) 
/opt/xchem-fragalysis-2/maxwin/BulkDock/SCRATCH/511022/C11945-P59/C11945-P59.minimised.mol

>  <scratch_subdir>  (516) 
/opt/xchem-fragalysis-2/maxwin/BulkDock/SCRATCH/511022/C11945-P59

>  <fragmenstein_runtime>  (516) 
15.587577819824219

>  <fragmenstein_outcome>  (516) 
too moved

>  <fragmenstein_mode>  (516) 
expansion

>  <fragmenstein_error>  (516) 


$$$$
C48507-P56
     RDKit          3D

 48 50  0  0  0  0  0  0  0  0999 V2000
   -4.6767   -8.7261   31.8834 C   0  0  0  0  0  0  0  0  0  0  0  0
   -4.2006   -9.9915   32.0988 N   0  0  0  0  0  0  0  0  0  0  0  0
   -5.3548  -11.4915   31.6732 C   0  0  0  0  0  0  0  0  0  0  0  0
   -6.9310  -12.7573   31.8158 C   0  0  0  0  0  0  0  0  0  0  0  0
   -7.9750  -14.3728   32.3321 N   0  0  0  0  0  0  0  0  0  0  0  0
   -7.5606  -15.6785   33.3126 C   0  0  0  0  0  0  0  0  0  0  0  0
   -6.4960  -15.9419   33.8375 O   0  0  0  0  0  0  0  0  0  0  0  0
   -8.8119  -16.7379   33.7583 C   0  0  0  0  0  0  0  0  0  0  0  0
   -8.6282  -18.4224   33.6812 C   0  0  0  0  0  0  0  0  0  0  0  0
   -7.4585  -18.9555   34.1884 C   0  0  0  0  0  0  0  0  0  0  0  0
   -7.1505  -20.1913   33.7770 N   0  0  0  0  0  0  0  0  0  0  0  0
   -8.2621  -20.7847   33.3583 N   0  0  0  0  0  0  0  0  0  0  0  0
   -9.3047  -19.6770   33.1818 C   0  0  0  0  0  0  0  0  0  0  0  0
  -10.6685  -20.2882   32.5812 C   0  0  0  0  0  0  0  0  0  0  0  0
  -11.1013  -21.7972   32.6762 C   0  0  0  0  0  0  0  0  0  0  0  0
   -9.9971  -22.8541   32.8159 C   0  0  0  0  0  0  0  0  0  0  0  0
   -8.5362  -22.3102   33.3365 C   0  0  0  0  0  0  0  0  0  0  0  0
   -2.8805   -9.9579   32.6180 C   0  0  0  0  0  0  0  0  0  0  0  0
   -1.9240   -9.9712   31.8414 O   0  0  0  0  0  0  0  0  0  0  0  0
   -2.5288   -9.7609   34.0929 C   0  0  0  0  0  0  0  0  0  0  0  0
   -3.0484   -8.5950   34.6504 C   0  0  0  0  0  0  0  0  0  0  0  0
   -2.2016   -7.5174   34.9753 C   0  0  0  0  0  0  0  0  0  0  0  0
   -0.8569   -7.6581   34.9024 C   0  0  0  0  0  0  0  0  0  0  0  0
   -0.3596   -8.8497   34.6576 N   0  0  0  0  0  0  0  0  0  0  0  0
   -1.2046   -9.8646   34.3146 C   0  0  0  0  0  0  0  0  0  0  0  0
   -4.9811   -8.4694   32.8845 H   0  0  0  0  0  0  0  0  0  0  0  0
   -5.4067   -8.6564   31.0945 H   0  0  0  0  0  0  0  0  0  0  0  0
   -3.7853   -8.1318   31.6567 H   0  0  0  0  0  0  0  0  0  0  0  0
   -4.7923  -11.9644   30.8457 H   0  0  0  0  0  0  0  0  0  0  0  0
   -6.0456  -10.8145   31.1981 H   0  0  0  0  0  0  0  0  0  0  0  0
   -7.1895  -13.0193   32.7821 H   0  0  0  0  0  0  0  0  0  0  0  0
   -7.4975  -11.8175   32.0555 H   0  0  0  0  0  0  0  0  0  0  0  0
   -8.9593  -14.4044   32.1281 H   0  0  0  0  0  0  0  0  0  0  0  0
   -9.7161  -16.3232   33.3475 H   0  0  0  0  0  0  0  0  0  0  0  0
   -8.9092  -16.5813   34.8446 H   0  0  0  0  0  0  0  0  0  0  0  0
   -6.8399  -18.4137   34.8843 H   0  0  0  0  0  0  0  0  0  0  0  0
  -10.5874  -20.2542   31.5123 H   0  0  0  0  0  0  0  0  0  0  0  0
  -11.4734  -19.7385   33.0650 H   0  0  0  0  0  0  0  0  0  0  0  0
  -11.7962  -21.9030   33.5223 H   0  0  0  0  0  0  0  0  0  0  0  0
  -11.7233  -22.0402   31.8038 H   0  0  0  0  0  0  0  0  0  0  0  0
   -9.9259  -23.4436   31.8994 H   0  0  0  0  0  0  0  0  0  0  0  0
  -10.3537  -23.6611   33.4635 H   0  0  0  0  0  0  0  0  0  0  0  0
   -8.3709  -22.7790   34.2759 H   0  0  0  0  0  0  0  0  0  0  0  0
   -7.7307  -22.8134   32.8353 H   0  0  0  0  0  0  0  0  0  0  0  0
   -4.1231   -8.4970   34.7443 H   0  0  0  0  0  0  0  0  0  0  0  0
   -2.5276   -6.5484   35.2944 H   0  0  0  0  0  0  0  0  0  0  0  0
   -0.1590   -6.8550   35.1066 H   0  0  0  0  0  0  0  0  0  0  0  0
   -0.7735  -10.8509   34.2808 H   0  0  0  0  0  0  0  0  0  0  0  0
  1  2  1  0
  2  3  1  0
  3  4  1  0
  4  5  1  0
  5  6  1  0
  6  7  2  0
  6  8  1  0
  8  9  1  0
  9 10  1  0
 10 11  2  0
 11 12  1  0
 12 13  1  0
 13 14  1  0
 14 15  1  0
 15 16  1  0
 16 17  1  0
  2 18  1  0
 18 19  2  0
 18 20  1  0
 20 21  2  0
 21 22  1  0
 22 23  2  0
 23 24  1  0
 24 25  2  0
 13  9  2  0
 25 20  1  0
 17 12  1  0
  1 26  1  0
  1 27  1  0
  1 28  1  0
  3 29  1  0
  3 30  1  0
  4 31  1  0
  4 32  1  0
  5 33  1  0
  8 34  1  0
  8 35  1  0
 10 36  1  0
 14 37  1  0
 14 38  1  0
 15 39  1  0
 15 40  1  0
 16 41  1  0
 16 42  1  0
 17 43  1  0
 17 44  1  0
 21 45  1  0
 22 46  1  0
 23 47  1  0
 25 48  1  0
M  END
>  <Energy>  (517) 
622.5521386661369

>  <compound_id>  (517) 
48507

>  <target_id>  (517) 
1

>  <reference_id>  (517) 
56

>  <inspiration_ids>  (517) 
[56, 82]

>  <energy_score>  (517) 
536.1377563251572

>  <distance_score>  (517) 
4.315471257857624

>  <path>  (517) 
/opt/xchem-fragalysis-2/maxwin/BulkDock/SCRATCH/511022/C48507-P56/C48507-P56.minimised.mol

>  <scratch_subdir>  (517) 
/opt/xchem-fragalysis-2/maxwin/BulkDock/SCRATCH/511022/C48507-P56

>  <fragmenstein_runtime>  (517) 
25.769228219985962

>  <fragmenstein_outcome>  (517) 
too moved

>  <fragmenstein_mode>  (517) 
expansion

>  <fragmenstein_error>  (517) 


$$$$
C48507-P82
     RDKit          3D

 48 50  0  0  0  0  0  0  0  0999 V2000
   -4.6613   -9.2698   36.0247 C   0  0  0  0  0  0  0  0  0  0  0  0
   -3.8274   -9.9859   35.1147 N   0  0  0  0  0  0  0  0  0  0  0  0
   -3.3763  -11.7396   35.3365 C   0  0  0  0  0  0  0  0  0  0  0  0
   -4.0059  -13.6013   34.9880 C   0  0  0  0  0  0  0  0  0  0  0  0
   -4.8908  -14.7376   35.6151 N   0  0  0  0  0  0  0  0  0  0  0  0
   -6.3169  -15.5912   34.9620 C   0  0  0  0  0  0  0  0  0  0  0  0
   -6.8306  -15.5289   33.8705 O   0  0  0  0  0  0  0  0  0  0  0  0
   -7.1549  -16.5050   35.9929 C   0  0  0  0  0  0  0  0  0  0  0  0
   -8.3795  -17.1677   35.6032 C   0  0  0  0  0  0  0  0  0  0  0  0
   -8.5864  -17.6274   34.3322 C   0  0  0  0  0  0  0  0  0  0  0  0
   -9.8602  -17.9184   34.1515 N   0  0  0  0  0  0  0  0  0  0  0  0
  -10.4642  -17.6546   35.3040 N   0  0  0  0  0  0  0  0  0  0  0  0
   -9.5736  -17.3599   36.2987 C   0  0  0  0  0  0  0  0  0  0  0  0
  -10.0161  -17.2101   37.7215 C   0  0  0  0  0  0  0  0  0  0  0  0
  -11.5410  -17.3435   37.8975 C   0  0  0  0  0  0  0  0  0  0  0  0
  -12.2101  -18.2698   36.8858 C   0  0  0  0  0  0  0  0  0  0  0  0
  -11.8819  -17.8886   35.4548 C   0  0  0  0  0  0  0  0  0  0  0  0
   -3.3891   -9.1640   34.0091 C   0  0  0  0  0  0  0  0  0  0  0  0
   -4.0511   -9.0940   32.9678 O   0  0  0  0  0  0  0  0  0  0  0  0
   -2.2385   -8.2559   34.0113 C   0  0  0  0  0  0  0  0  0  0  0  0
   -1.6665   -7.8707   32.7925 C   0  0  0  0  0  0  0  0  0  0  0  0
   -0.7757   -6.8055   32.7388 C   0  0  0  0  0  0  0  0  0  0  0  0
   -0.4764   -6.1527   33.9195 C   0  0  0  0  0  0  0  0  0  0  0  0
   -1.0162   -6.4845   35.1136 N   0  0  0  0  0  0  0  0  0  0  0  0
   -1.8976   -7.5147   35.1141 C   0  0  0  0  0  0  0  0  0  0  0  0
   -4.6689   -8.2370   35.7125 H   0  0  0  0  0  0  0  0  0  0  0  0
   -5.6991   -9.5879   36.0165 H   0  0  0  0  0  0  0  0  0  0  0  0
   -4.2410   -9.3501   37.0090 H   0  0  0  0  0  0  0  0  0  0  0  0
   -2.4976  -11.6200   34.6921 H   0  0  0  0  0  0  0  0  0  0  0  0
   -2.8613  -11.8155   36.2097 H   0  0  0  0  0  0  0  0  0  0  0  0
   -3.9512  -13.5145   36.0770 H   0  0  0  0  0  0  0  0  0  0  0  0
   -3.2279  -14.1570   34.4448 H   0  0  0  0  0  0  0  0  0  0  0  0
   -4.6672  -15.0727   36.5356 H   0  0  0  0  0  0  0  0  0  0  0  0
   -7.7335  -15.6624   36.3926 H   0  0  0  0  0  0  0  0  0  0  0  0
   -6.7784  -16.9036   36.8918 H   0  0  0  0  0  0  0  0  0  0  0  0
   -7.8431  -17.7431   33.5556 H   0  0  0  0  0  0  0  0  0  0  0  0
   -9.6843  -16.2513   38.1355 H   0  0  0  0  0  0  0  0  0  0  0  0
   -9.5129  -17.9290   38.3700 H   0  0  0  0  0  0  0  0  0  0  0  0
  -11.7541  -17.6910   38.9157 H   0  0  0  0  0  0  0  0  0  0  0  0
  -12.0077  -16.3563   37.8210 H   0  0  0  0  0  0  0  0  0  0  0  0
  -13.2949  -18.2816   37.0360 H   0  0  0  0  0  0  0  0  0  0  0  0
  -11.8455  -19.2721   37.0745 H   0  0  0  0  0  0  0  0  0  0  0  0
  -12.3867  -16.9588   35.1717 H   0  0  0  0  0  0  0  0  0  0  0  0
  -12.1867  -18.6855   34.7685 H   0  0  0  0  0  0  0  0  0  0  0  0
   -1.9505   -8.3763   31.8770 H   0  0  0  0  0  0  0  0  0  0  0  0
   -0.3094   -6.5048   31.8066 H   0  0  0  0  0  0  0  0  0  0  0  0
    0.2305   -5.3276   33.9363 H   0  0  0  0  0  0  0  0  0  0  0  0
   -2.3012   -7.7507   36.0832 H   0  0  0  0  0  0  0  0  0  0  0  0
  1  2  1  0
  2  3  1  0
  3  4  1  0
  4  5  1  0
  5  6  1  0
  6  7  2  0
  6  8  1  0
  8  9  1  0
  9 10  1  0
 10 11  2  0
 11 12  1  0
 12 13  1  0
 13 14  1  0
 14 15  1  0
 15 16  1  0
 16 17  1  0
  2 18  1  0
 18 19  2  0
 18 20  1  0
 20 21  2  0
 21 22  1  0
 22 23  2  0
 23 24  1  0
 24 25  2  0
 13  9  2  0
 25 20  1  0
 17 12  1  0
  1 26  1  0
  1 27  1  0
  1 28  1  0
  3 29  1  0
  3 30  1  0
  4 31  1  0
  4 32  1  0
  5 33  1  0
  8 34  1  0
  8 35  1  0
 10 36  1  0
 14 37  1  0
 14 38  1  0
 15 39  1  0
 15 40  1  0
 16 41  1  0
 16 42  1  0
 17 43  1  0
 17 44  1  0
 21 45  1  0
 22 46  1  0
 23 47  1  0
 25 48  1  0
M  END
>  <Energy>  (518) 
346.25551193101688

>  <compound_id>  (518) 
48507

>  <target_id>  (518) 
1

>  <reference_id>  (518) 
82

>  <inspiration_ids>  (518) 
[56, 82]

>  <energy_score>  (518) 
259.84112959003227

>  <distance_score>  (518) 
6.999480570250855

>  <path>  (518) 
/opt/xchem-fragalysis-2/maxwin/BulkDock/SCRATCH/511022/C48507-P82/C48507-P82.minimised.mol

>  <scratch_subdir>  (518) 
/opt/xchem-fragalysis-2/maxwin/BulkDock/SCRATCH/511022/C48507-P82

>  <fragmenstein_runtime>  (518) 
27.638225317001343

>  <fragmenstein_outcome>  (518) 
too moved

>  <fragmenstein_mode>  (518) 
expansion

>  <fragmenstein_error>  (518) 


$$$$
C48507-P56
     RDKit          3D

 48 50  0  0  0  0  0  0  0  0999 V2000
   -4.6767   -8.7261   31.8834 C   0  0  0  0  0  0  0  0  0  0  0  0
   -4.2006   -9.9915   32.0988 N   0  0  0  0  0  0  0  0  0  0  0  0
   -5.3548  -11.4915   31.6732 C   0  0  0  0  0  0  0  0  0  0  0  0
   -6.9310  -12.7573   31.8158 C   0  0  0  0  0  0  0  0  0  0  0  0
   -7.9750  -14.3728   32.3321 N   0  0  0  0  0  0  0  0  0  0  0  0
   -7.5606  -15.6785   33.3126 C   0  0  0  0  0  0  0  0  0  0  0  0
   -6.4960  -15.9419   33.8375 O   0  0  0  0  0  0  0  0  0  0  0  0
   -8.8119  -16.7379   33.7583 C   0  0  0  0  0  0  0  0  0  0  0  0
   -8.6282  -18.4224   33.6812 C   0  0  0  0  0  0  0  0  0  0  0  0
   -7.4585  -18.9555   34.1884 C   0  0  0  0  0  0  0  0  0  0  0  0
   -7.1505  -20.1913   33.7770 N   0  0  0  0  0  0  0  0  0  0  0  0
   -8.2621  -20.7847   33.3583 N   0  0  0  0  0  0  0  0  0  0  0  0
   -9.3047  -19.6770   33.1818 C   0  0  0  0  0  0  0  0  0  0  0  0
  -10.6685  -20.2882   32.5812 C   0  0  0  0  0  0  0  0  0  0  0  0
  -11.1013  -21.7972   32.6762 C   0  0  0  0  0  0  0  0  0  0  0  0
   -9.9971  -22.8541   32.8159 C   0  0  0  0  0  0  0  0  0  0  0  0
   -8.5362  -22.3102   33.3365 C   0  0  0  0  0  0  0  0  0  0  0  0
   -2.8805   -9.9579   32.6180 C   0  0  0  0  0  0  0  0  0  0  0  0
   -1.9240   -9.9712   31.8414 O   0  0  0  0  0  0  0  0  0  0  0  0
   -2.5288   -9.7609   34.0929 C   0  0  0  0  0  0  0  0  0  0  0  0
   -3.0484   -8.5950   34.6504 C   0  0  0  0  0  0  0  0  0  0  0  0
   -2.2016   -7.5174   34.9753 C   0  0  0  0  0  0  0  0  0  0  0  0
   -0.8569   -7.6581   34.9024 C   0  0  0  0  0  0  0  0  0  0  0  0
   -0.3596   -8.8497   34.6576 N   0  0  0  0  0  0  0  0  0  0  0  0
   -1.2046   -9.8646   34.3146 C   0  0  0  0  0  0  0  0  0  0  0  0
   -4.9811   -8.4694   32.8845 H   0  0  0  0  0  0  0  0  0  0  0  0
   -5.4067   -8.6564   31.0945 H   0  0  0  0  0  0  0  0  0  0  0  0
   -3.7853   -8.1318   31.6567 H   0  0  0  0  0  0  0  0  0  0  0  0
   -4.7923  -11.9644   30.8457 H   0  0  0  0  0  0  0  0  0  0  0  0
   -6.0456  -10.8145   31.1981 H   0  0  0  0  0  0  0  0  0  0  0  0
   -7.1895  -13.0193   32.7821 H   0  0  0  0  0  0  0  0  0  0  0  0
   -7.4975  -11.8175   32.0555 H   0  0  0  0  0  0  0  0  0  0  0  0
   -8.9593  -14.4044   32.1281 H   0  0  0  0  0  0  0  0  0  0  0  0
   -9.7161  -16.3232   33.3475 H   0  0  0  0  0  0  0  0  0  0  0  0
   -8.9092  -16.5813   34.8446 H   0  0  0  0  0  0  0  0  0  0  0  0
   -6.8399  -18.4137   34.8843 H   0  0  0  0  0  0  0  0  0  0  0  0
  -10.5874  -20.2542   31.5123 H   0  0  0  0  0  0  0  0  0  0  0  0
  -11.4734  -19.7385   33.0650 H   0  0  0  0  0  0  0  0  0  0  0  0
  -11.7962  -21.9030   33.5223 H   0  0  0  0  0  0  0  0  0  0  0  0
  -11.7233  -22.0402   31.8038 H   0  0  0  0  0  0  0  0  0  0  0  0
   -9.9259  -23.4436   31.8994 H   0  0  0  0  0  0  0  0  0  0  0  0
  -10.3537  -23.6611   33.4635 H   0  0  0  0  0  0  0  0  0  0  0  0
   -8.3709  -22.7790   34.2759 H   0  0  0  0  0  0  0  0  0  0  0  0
   -7.7307  -22.8134   32.8353 H   0  0  0  0  0  0  0  0  0  0  0  0
   -4.1231   -8.4970   34.7443 H   0  0  0  0  0  0  0  0  0  0  0  0
   -2.5276   -6.5484   35.2944 H   0  0  0  0  0  0  0  0  0  0  0  0
   -0.1590   -6.8550   35.1066 H   0  0  0  0  0  0  0  0  0  0  0  0
   -0.7735  -10.8509   34.2808 H   0  0  0  0  0  0  0  0  0  0  0  0
  1  2  1  0
  2  3  1  0
  3  4  1  0
  4  5  1  0
  5  6  1  0
  6  7  2  0
  6  8  1  0
  8  9  1  0
  9 10  1  0
 10 11  2  0
 11 12  1  0
 12 13  1  0
 13 14  1  0
 14 15  1  0
 15 16  1  0
 16 17  1  0
  2 18  1  0
 18 19  2  0
 18 20  1  0
 20 21  2  0
 21 22  1  0
 22 23  2  0
 23 24  1  0
 24 25  2  0
 13  9  2  0
 25 20  1  0
 17 12  1  0
  1 26  1  0
  1 27  1  0
  1 28  1  0
  3 29  1  0
  3 30  1  0
  4 31  1  0
  4 32  1  0
  5 33  1  0
  8 34  1  0
  8 35  1  0
 10 36  1  0
 14 37  1  0
 14 38  1  0
 15 39  1  0
 15 40  1  0
 16 41  1  0
 16 42  1  0
 17 43  1  0
 17 44  1  0
 21 45  1  0
 22 46  1  0
 23 47  1  0
 25 48  1  0
M  END
>  <Energy>  (519) 
622.5521386661369

>  <compound_id>  (519) 
48507

>  <target_id>  (519) 
1

>  <reference_id>  (519) 
56

>  <inspiration_ids>  (519) 
[56, 82]

>  <energy_score>  (519) 
536.1377563251572

>  <distance_score>  (519) 
4.315471257857624

>  <path>  (519) 
/opt/xchem-fragalysis-2/maxwin/BulkDock/SCRATCH/511022/C48507-P56/C48507-P56.minimised.mol

>  <scratch_subdir>  (519) 
/opt/xchem-fragalysis-2/maxwin/BulkDock/SCRATCH/511022/C48507-P56

>  <fragmenstein_runtime>  (519) 
16.566290140151978

>  <fragmenstein_outcome>  (519) 
too moved

>  <fragmenstein_mode>  (519) 
expansion

>  <fragmenstein_error>  (519) 


$$$$
C48507-P82
     RDKit          3D

 48 50  0  0  0  0  0  0  0  0999 V2000
   -4.6613   -9.2698   36.0247 C   0  0  0  0  0  0  0  0  0  0  0  0
   -3.8274   -9.9859   35.1147 N   0  0  0  0  0  0  0  0  0  0  0  0
   -3.3763  -11.7396   35.3365 C   0  0  0  0  0  0  0  0  0  0  0  0
   -4.0059  -13.6013   34.9880 C   0  0  0  0  0  0  0  0  0  0  0  0
   -4.8908  -14.7376   35.6151 N   0  0  0  0  0  0  0  0  0  0  0  0
   -6.3169  -15.5912   34.9620 C   0  0  0  0  0  0  0  0  0  0  0  0
   -6.8306  -15.5289   33.8705 O   0  0  0  0  0  0  0  0  0  0  0  0
   -7.1549  -16.5050   35.9929 C   0  0  0  0  0  0  0  0  0  0  0  0
   -8.3795  -17.1677   35.6032 C   0  0  0  0  0  0  0  0  0  0  0  0
   -8.5864  -17.6274   34.3322 C   0  0  0  0  0  0  0  0  0  0  0  0
   -9.8602  -17.9184   34.1515 N   0  0  0  0  0  0  0  0  0  0  0  0
  -10.4642  -17.6546   35.3040 N   0  0  0  0  0  0  0  0  0  0  0  0
   -9.5736  -17.3599   36.2987 C   0  0  0  0  0  0  0  0  0  0  0  0
  -10.0161  -17.2101   37.7215 C   0  0  0  0  0  0  0  0  0  0  0  0
  -11.5410  -17.3435   37.8975 C   0  0  0  0  0  0  0  0  0  0  0  0
  -12.2101  -18.2698   36.8858 C   0  0  0  0  0  0  0  0  0  0  0  0
  -11.8819  -17.8886   35.4548 C   0  0  0  0  0  0  0  0  0  0  0  0
   -3.3891   -9.1640   34.0091 C   0  0  0  0  0  0  0  0  0  0  0  0
   -4.0511   -9.0940   32.9678 O   0  0  0  0  0  0  0  0  0  0  0  0
   -2.2385   -8.2559   34.0113 C   0  0  0  0  0  0  0  0  0  0  0  0
   -1.6665   -7.8707   32.7925 C   0  0  0  0  0  0  0  0  0  0  0  0
   -0.7757   -6.8055   32.7388 C   0  0  0  0  0  0  0  0  0  0  0  0
   -0.4764   -6.1527   33.9195 C   0  0  0  0  0  0  0  0  0  0  0  0
   -1.0162   -6.4845   35.1136 N   0  0  0  0  0  0  0  0  0  0  0  0
   -1.8976   -7.5147   35.1141 C   0  0  0  0  0  0  0  0  0  0  0  0
   -4.6689   -8.2370   35.7125 H   0  0  0  0  0  0  0  0  0  0  0  0
   -5.6991   -9.5879   36.0165 H   0  0  0  0  0  0  0  0  0  0  0  0
   -4.2410   -9.3501   37.0090 H   0  0  0  0  0  0  0  0  0  0  0  0
   -2.4976  -11.6200   34.6921 H   0  0  0  0  0  0  0  0  0  0  0  0
   -2.8613  -11.8155   36.2097 H   0  0  0  0  0  0  0  0  0  0  0  0
   -3.9512  -13.5145   36.0770 H   0  0  0  0  0  0  0  0  0  0  0  0
   -3.2279  -14.1570   34.4448 H   0  0  0  0  0  0  0  0  0  0  0  0
   -4.6672  -15.0727   36.5356 H   0  0  0  0  0  0  0  0  0  0  0  0
   -7.7335  -15.6624   36.3926 H   0  0  0  0  0  0  0  0  0  0  0  0
   -6.7784  -16.9036   36.8918 H   0  0  0  0  0  0  0  0  0  0  0  0
   -7.8431  -17.7431   33.5556 H   0  0  0  0  0  0  0  0  0  0  0  0
   -9.6843  -16.2513   38.1355 H   0  0  0  0  0  0  0  0  0  0  0  0
   -9.5129  -17.9290   38.3700 H   0  0  0  0  0  0  0  0  0  0  0  0
  -11.7541  -17.6910   38.9157 H   0  0  0  0  0  0  0  0  0  0  0  0
  -12.0077  -16.3563   37.8210 H   0  0  0  0  0  0  0  0  0  0  0  0
  -13.2949  -18.2816   37.0360 H   0  0  0  0  0  0  0  0  0  0  0  0
  -11.8455  -19.2721   37.0745 H   0  0  0  0  0  0  0  0  0  0  0  0
  -12.3867  -16.9588   35.1717 H   0  0  0  0  0  0  0  0  0  0  0  0
  -12.1867  -18.6855   34.7685 H   0  0  0  0  0  0  0  0  0  0  0  0
   -1.9505   -8.3763   31.8770 H   0  0  0  0  0  0  0  0  0  0  0  0
   -0.3094   -6.5048   31.8066 H   0  0  0  0  0  0  0  0  0  0  0  0
    0.2305   -5.3276   33.9363 H   0  0  0  0  0  0  0  0  0  0  0  0
   -2.3012   -7.7507   36.0832 H   0  0  0  0  0  0  0  0  0  0  0  0
  1  2  1  0
  2  3  1  0
  3  4  1  0
  4  5  1  0
  5  6  1  0
  6  7  2  0
  6  8  1  0
  8  9  1  0
  9 10  1  0
 10 11  2  0
 11 12  1  0
 12 13  1  0
 13 14  1  0
 14 15  1  0
 15 16  1  0
 16 17  1  0
  2 18  1  0
 18 19  2  0
 18 20  1  0
 20 21  2  0
 21 22  1  0
 22 23  2  0
 23 24  1  0
 24 25  2  0
 13  9  2  0
 25 20  1  0
 17 12  1  0
  1 26  1  0
  1 27  1  0
  1 28  1  0
  3 29  1  0
  3 30  1  0
  4 31  1  0
  4 32  1  0
  5 33  1  0
  8 34  1  0
  8 35  1  0
 10 36  1  0
 14 37  1  0
 14 38  1  0
 15 39  1  0
 15 40  1  0
 16 41  1  0
 16 42  1  0
 17 43  1  0
 17 44  1  0
 21 45  1  0
 22 46  1  0
 23 47  1  0
 25 48  1  0
M  END
>  <Energy>  (520) 
346.25551193101688

>  <compound_id>  (520) 
48507

>  <target_id>  (520) 
1

>  <reference_id>  (520) 
82

>  <inspiration_ids>  (520) 
[56, 82]

>  <energy_score>  (520) 
259.84112959003227

>  <distance_score>  (520) 
6.999480570250855

>  <path>  (520) 
/opt/xchem-fragalysis-2/maxwin/BulkDock/SCRATCH/511022/C48507-P82/C48507-P82.minimised.mol

>  <scratch_subdir>  (520) 
/opt/xchem-fragalysis-2/maxwin/BulkDock/SCRATCH/511022/C48507-P82

>  <fragmenstein_runtime>  (520) 
32.65093183517456

>  <fragmenstein_outcome>  (520) 
too moved

>  <fragmenstein_mode>  (520) 
expansion

>  <fragmenstein_error>  (520) 


$$$$
C52220-P7
     RDKit          3D

 30 30  0  0  0  0  0  0  0  0999 V2000
    2.7817   -1.3617   27.5928 C   0  0  0  0  0  0  0  0  0  0  0  0
    2.0835   -1.2566   28.8510 O   0  0  0  0  0  0  0  0  0  0  0  0
    0.7248   -1.8010   28.8954 C   0  0  0  0  0  0  0  0  0  0  0  0
    0.7836   -3.3062   28.6013 C   0  0  0  0  0  0  0  0  0  0  0  0
   -0.0208   -1.5556   30.3153 C   0  0  0  0  0  0  0  0  0  0  0  0
   -0.0555   -0.0681   30.7374 C   0  0  0  0  0  0  0  0  0  0  0  0
   -0.3764    0.1388   32.2320 C   0  0  0  0  0  0  0  0  0  0  0  0
   -1.8487    0.1421   32.6390 C   0  0  0  0  0  0  0  0  0  0  0  0
   -2.7571   -0.6858   31.7567 C   0  0  0  0  0  0  0  0  0  0  0  0
   -2.2610   -2.0391   31.5665 N   0  0  0  0  0  0  0  0  0  0  0  0
   -1.4527   -2.1772   30.3383 C   0  0  0  0  0  0  0  0  0  0  0  0
    3.1465   -2.3796   27.4444 H   0  0  0  0  0  0  0  0  0  0  0  0
    3.6450   -0.6925   27.6361 H   0  0  0  0  0  0  0  0  0  0  0  0
    2.1332   -1.0505   26.7762 H   0  0  0  0  0  0  0  0  0  0  0  0
    0.1437   -1.2907   28.1180 H   0  0  0  0  0  0  0  0  0  0  0  0
    1.2993   -3.8359   29.4097 H   0  0  0  0  0  0  0  0  0  0  0  0
    1.3385   -3.5237   27.6880 H   0  0  0  0  0  0  0  0  0  0  0  0
   -0.2111   -3.7395   28.4731 H   0  0  0  0  0  0  0  0  0  0  0  0
    0.5901   -2.0821   31.0626 H   0  0  0  0  0  0  0  0  0  0  0  0
   -0.7412    0.5056   30.1033 H   0  0  0  0  0  0  0  0  0  0  0  0
    0.9430    0.3534   30.5662 H   0  0  0  0  0  0  0  0  0  0  0  0
    0.1552   -0.6209   32.8195 H   0  0  0  0  0  0  0  0  0  0  0  0
    0.0532    1.0992   32.5457 H   0  0  0  0  0  0  0  0  0  0  0  0
   -1.9244   -0.1949   33.6808 H   0  0  0  0  0  0  0  0  0  0  0  0
   -2.2149    1.1754   32.6333 H   0  0  0  0  0  0  0  0  0  0  0  0
   -3.7327   -0.7424   32.2541 H   0  0  0  0  0  0  0  0  0  0  0  0
   -2.9286   -0.1694   30.8065 H   0  0  0  0  0  0  0  0  0  0  0  0
   -3.0602   -2.6661   31.4683 H   0  0  0  0  0  0  0  0  0  0  0  0
   -1.3442   -3.2577   30.2013 H   0  0  0  0  0  0  0  0  0  0  0  0
   -2.0204   -1.8191   29.4708 H   0  0  0  0  0  0  0  0  0  0  0  0
  1  2  1  0
  2  3  1  0
  3  4  1  0
  3  5  1  0
  5  6  1  0
  6  7  1  0
  7  8  1  0
  8  9  1  0
  9 10  1  0
 10 11  1  0
 11  5  1  0
  1 12  1  0
  1 13  1  0
  1 14  1  0
  3 15  1  0
  4 16  1  0
  4 17  1  0
  4 18  1  0
  5 19  1  0
  6 20  1  0
  6 21  1  0
  7 22  1  0
  7 23  1  0
  8 24  1  0
  8 25  1  0
  9 26  1  0
  9 27  1  0
 10 28  1  0
 11 29  1  0
 11 30  1  0
M  END
>  <Energy>  (521) 
29.161586035047659

>  <compound_id>  (521) 
52220

>  <target_id>  (521) 
1

>  <reference_id>  (521) 
7

>  <inspiration_ids>  (521) 
[7, 124]

>  <energy_score>  (521) 
-16.346406402432446

>  <distance_score>  (521) 
14.598203364031061

>  <path>  (521) 
/opt/xchem-fragalysis-2/maxwin/BulkDock/SCRATCH/511022/C52220-P7/C52220-P7.minimised.mol

>  <scratch_subdir>  (521) 
/opt/xchem-fragalysis-2/maxwin/BulkDock/SCRATCH/511022/C52220-P7

>  <fragmenstein_runtime>  (521) 
6.591176986694336

>  <fragmenstein_outcome>  (521) 
too moved

>  <fragmenstein_mode>  (521) 
expansion

>  <fragmenstein_error>  (521) 


$$$$
C52220-P124
     RDKit          3D

 30 30  0  0  0  0  0  0  0  0999 V2000
   -2.6922   -3.1591   22.3430 C   0  0  0  0  0  0  0  0  0  0  0  0
   -3.4912   -3.4146   23.5252 O   0  0  0  0  0  0  0  0  0  0  0  0
   -4.8710   -2.9200   23.4728 C   0  0  0  0  0  0  0  0  0  0  0  0
   -5.6757   -3.7903   22.5022 C   0  0  0  0  0  0  0  0  0  0  0  0
   -5.5935   -2.8274   24.9235 C   0  0  0  0  0  0  0  0  0  0  0  0
   -6.0314   -4.2037   25.5010 C   0  0  0  0  0  0  0  0  0  0  0  0
   -6.4819   -4.1840   26.9766 C   0  0  0  0  0  0  0  0  0  0  0  0
   -7.9461   -3.8198   27.2375 C   0  0  0  0  0  0  0  0  0  0  0  0
   -8.5257   -2.7778   26.2892 C   0  0  0  0  0  0  0  0  0  0  0  0
   -7.6071   -1.6673   26.0756 N   0  0  0  0  0  0  0  0  0  0  0  0
   -6.7927   -1.8315   24.8649 C   0  0  0  0  0  0  0  0  0  0  0  0
   -1.6982   -3.5841   22.4955 H   0  0  0  0  0  0  0  0  0  0  0  0
   -2.6104   -2.0846   22.1686 H   0  0  0  0  0  0  0  0  0  0  0  0
   -3.1334   -3.6508   21.4734 H   0  0  0  0  0  0  0  0  0  0  0  0
   -4.8256   -1.8975   23.0795 H   0  0  0  0  0  0  0  0  0  0  0  0
   -5.3227   -3.6589   21.4746 H   0  0  0  0  0  0  0  0  0  0  0  0
   -6.7400   -3.5426   22.5088 H   0  0  0  0  0  0  0  0  0  0  0  0
   -5.5567   -4.8529   22.7387 H   0  0  0  0  0  0  0  0  0  0  0  0
   -4.8513   -2.3963   25.6044 H   0  0  0  0  0  0  0  0  0  0  0  0
   -5.1751   -4.8843   25.4214 H   0  0  0  0  0  0  0  0  0  0  0  0
   -6.8235   -4.6450   24.8847 H   0  0  0  0  0  0  0  0  0  0  0  0
   -6.3193   -5.1838   27.3955 H   0  0  0  0  0  0  0  0  0  0  0  0
   -5.8365   -3.5048   27.5445 H   0  0  0  0  0  0  0  0  0  0  0  0
   -8.0332   -3.4717   28.2736 H   0  0  0  0  0  0  0  0  0  0  0  0
   -8.5600   -4.7263   27.1668 H   0  0  0  0  0  0  0  0  0  0  0  0
   -8.8364   -3.2417   25.3451 H   0  0  0  0  0  0  0  0  0  0  0  0
   -9.4435   -2.3817   26.7395 H   0  0  0  0  0  0  0  0  0  0  0  0
   -6.9960   -1.5859   26.8818 H   0  0  0  0  0  0  0  0  0  0  0  0
   -7.4479   -2.0659   24.0183 H   0  0  0  0  0  0  0  0  0  0  0  0
   -6.3771   -0.8420   24.6351 H   0  0  0  0  0  0  0  0  0  0  0  0
  1  2  1  0
  2  3  1  0
  3  4  1  0
  3  5  1  0
  5  6  1  0
  6  7  1  0
  7  8  1  0
  8  9  1  0
  9 10  1  0
 10 11  1  0
 11  5  1  0
  1 12  1  0
  1 13  1  0
  1 14  1  0
  3 15  1  0
  4 16  1  0
  4 17  1  0
  4 18  1  0
  5 19  1  0
  6 20  1  0
  6 21  1  0
  7 22  1  0
  7 23  1  0
  8 24  1  0
  8 25  1  0
  9 26  1  0
  9 27  1  0
 10 28  1  0
 11 29  1  0
 11 30  1  0
M  END
>  <Energy>  (522) 
28.843592064350911

>  <compound_id>  (522) 
52220

>  <target_id>  (522) 
1

>  <reference_id>  (522) 
124

>  <inspiration_ids>  (522) 
[7, 124]

>  <energy_score>  (522) 
-16.664400373129

>  <distance_score>  (522) 
14.993670745205536

>  <path>  (522) 
/opt/xchem-fragalysis-2/maxwin/BulkDock/SCRATCH/511022/C52220-P124/C52220-P124.minimised.mol

>  <scratch_subdir>  (522) 
/opt/xchem-fragalysis-2/maxwin/BulkDock/SCRATCH/511022/C52220-P124

>  <fragmenstein_runtime>  (522) 
6.475202560424805

>  <fragmenstein_outcome>  (522) 
too moved

>  <fragmenstein_mode>  (522) 
expansion

>  <fragmenstein_error>  (522) 


$$$$
C7835-P49
     RDKit          3D

 43 44  0  0  0  0  0  0  0  0999 V2000
   -7.4130  -10.5312   22.3390 C   0  0  0  0  0  0  0  0  0  0  0  0
   -5.9872  -10.9082   22.5292 N   0  0  0  0  0  0  0  0  0  0  0  0
   -6.8387  -11.0604   24.4089 C   0  0  0  0  0  0  0  0  0  0  0  0
   -7.8930  -12.4795   25.5929 C   0  0  0  0  0  0  0  0  0  0  0  0
   -8.3631  -13.9695   26.7741 N   0  0  0  0  0  0  0  0  0  0  0  0
   -9.2746  -15.4774   26.4674 C   0  0  0  0  0  0  0  0  0  0  0  0
   -9.8404  -15.7532   25.4244 O   0  0  0  0  0  0  0  0  0  0  0  0
   -9.3112  -16.9803   27.8082 C   0  0  0  0  0  0  0  0  0  0  0  0
   -9.8303  -18.6564   28.9941 N   0  0  0  0  0  0  0  0  0  0  0  0
   -9.8729  -20.2458   28.1381 C   0  0  0  0  0  0  0  0  0  0  0  0
  -10.7450  -21.4373   28.5703 C   0  0  0  0  0  0  0  0  0  0  0  0
  -11.3070  -20.9861   29.8286 C   0  0  0  0  0  0  0  0  0  0  0  0
  -11.1146  -19.4849   29.7084 C   0  0  0  0  0  0  0  0  0  0  0  0
   -4.5345   -9.6699   21.7309 C   0  0  0  0  0  0  0  0  0  0  0  0
   -3.9485   -8.7386   22.1971 O   0  0  0  0  0  0  0  0  0  0  0  0
   -4.1007   -9.8129   19.8819 C   0  0  0  0  0  0  0  0  0  0  0  0
   -4.2067   -8.3958   19.5708 C   0  0  0  0  0  0  0  0  0  0  0  0
   -3.2311   -7.6033   18.9488 C   0  0  0  0  0  0  0  0  0  0  0  0
   -2.1065   -8.2402   18.5179 C   0  0  0  0  0  0  0  0  0  0  0  0
   -1.9906   -9.5786   18.5711 N   0  0  0  0  0  0  0  0  0  0  0  0
   -2.9895  -10.2980   19.1847 C   0  0  0  0  0  0  0  0  0  0  0  0
   -7.8517   -9.8627   23.0303 H   0  0  0  0  0  0  0  0  0  0  0  0
   -7.6531  -11.3971   21.7207 H   0  0  0  0  0  0  0  0  0  0  0  0
   -8.1012  -10.0995   21.6339 H   0  0  0  0  0  0  0  0  0  0  0  0
   -7.6677  -10.3939   24.4165 H   0  0  0  0  0  0  0  0  0  0  0  0
   -7.0096  -11.9458   23.8922 H   0  0  0  0  0  0  0  0  0  0  0  0
   -7.8619  -13.2770   24.8283 H   0  0  0  0  0  0  0  0  0  0  0  0
   -8.8234  -11.9968   25.8337 H   0  0  0  0  0  0  0  0  0  0  0  0
   -7.9348  -14.0237   27.6577 H   0  0  0  0  0  0  0  0  0  0  0  0
   -8.2435  -16.9125   28.0604 H   0  0  0  0  0  0  0  0  0  0  0  0
  -10.0597  -16.3035   28.3241 H   0  0  0  0  0  0  0  0  0  0  0  0
   -8.8794  -20.6994   28.1914 H   0  0  0  0  0  0  0  0  0  0  0  0
  -10.3237  -20.1109   27.1684 H   0  0  0  0  0  0  0  0  0  0  0  0
  -10.1695  -22.3640   28.6725 H   0  0  0  0  0  0  0  0  0  0  0  0
  -11.5318  -21.6373   27.8350 H   0  0  0  0  0  0  0  0  0  0  0  0
  -12.3548  -21.2712   29.9446 H   0  0  0  0  0  0  0  0  0  0  0  0
  -10.8108  -21.4174   30.7041 H   0  0  0  0  0  0  0  0  0  0  0  0
  -12.0279  -19.1162   29.2415 H   0  0  0  0  0  0  0  0  0  0  0  0
  -10.9530  -19.3496   30.7944 H   0  0  0  0  0  0  0  0  0  0  0  0
   -4.9926   -7.7991   20.0285 H   0  0  0  0  0  0  0  0  0  0  0  0
   -3.3390   -6.5267   18.8870 H   0  0  0  0  0  0  0  0  0  0  0  0
   -1.2749   -7.7042   18.0731 H   0  0  0  0  0  0  0  0  0  0  0  0
   -2.8365  -11.3619   19.0425 H   0  0  0  0  0  0  0  0  0  0  0  0
  1  2  1  0
  2  3  1  0
  3  4  1  0
  4  5  1  0
  5  6  1  0
  6  7  2  0
  6  8  1  0
  8  9  1  0
  9 10  1  0
 10 11  1  0
 11 12  1  0
 12 13  1  0
  2 14  1  0
 14 15  2  0
 14 16  1  0
 16 17  2  0
 17 18  1  0
 18 19  2  0
 19 20  1  0
 20 21  2  0
 13  9  1  0
 21 16  1  0
  1 22  1  0
  1 23  1  0
  1 24  1  0
  3 25  1  0
  3 26  1  0
  4 27  1  0
  4 28  1  0
  5 29  1  0
  8 30  1  0
  8 31  1  0
 10 32  1  0
 10 33  1  0
 11 34  1  0
 11 35  1  0
 12 36  1  0
 12 37  1  0
 13 38  1  0
 13 39  1  0
 17 40  1  0
 18 41  1  0
 19 42  1  0
 21 43  1  0
M  END
>  <Energy>  (523) 
1289.1303124109775

>  <compound_id>  (523) 
7835

>  <target_id>  (523) 
1

>  <reference_id>  (523) 
49

>  <inspiration_ids>  (523) 
[49, 44]

>  <energy_score>  (523) 
1182.3784743614046

>  <distance_score>  (523) 
11.544169733209667

>  <path>  (523) 
/opt/xchem-fragalysis-2/maxwin/BulkDock/SCRATCH/511022/C7835-P49/C7835-P49.minimised.mol

>  <scratch_subdir>  (523) 
/opt/xchem-fragalysis-2/maxwin/BulkDock/SCRATCH/511022/C7835-P49

>  <fragmenstein_runtime>  (523) 
16.816746711730957

>  <fragmenstein_outcome>  (523) 
too moved

>  <fragmenstein_mode>  (523) 
expansion

>  <fragmenstein_error>  (523) 


$$$$
C7835-P44
     RDKit          3D

 43 44  0  0  0  0  0  0  0  0999 V2000
   -6.8261  -12.0624   25.2434 C   0  0  0  0  0  0  0  0  0  0  0  0
   -6.5615  -11.6542   26.4054 N   0  0  0  0  0  0  0  0  0  0  0  0
   -7.4996  -13.6494   26.9860 C   0  0  0  0  0  0  0  0  0  0  0  0
   -8.1110  -15.9383   27.1515 C   0  0  0  0  0  0  0  0  0  0  0  0
   -8.7535  -17.6286   28.4460 N   0  0  0  0  0  0  0  0  0  0  0  0
   -9.5329  -19.5637   28.2046 C   0  0  0  0  0  0  0  0  0  0  0  0
   -9.7125  -20.3190   27.1674 O   0  0  0  0  0  0  0  0  0  0  0  0
  -10.4654  -20.4697   29.6939 C   0  0  0  0  0  0  0  0  0  0  0  0
  -11.5814  -21.3959   28.8545 N   0  0  0  0  0  0  0  0  0  0  0  0
  -11.8728  -21.7705   27.4327 C   0  0  0  0  0  0  0  0  0  0  0  0
  -11.4416  -23.2091   27.0986 C   0  0  0  0  0  0  0  0  0  0  0  0
  -10.4636  -23.3888   28.2029 C   0  0  0  0  0  0  0  0  0  0  0  0
  -11.2873  -22.6734   29.2491 C   0  0  0  0  0  0  0  0  0  0  0  0
   -7.2164   -9.6350   26.6079 C   0  0  0  0  0  0  0  0  0  0  0  0
   -8.3409   -9.6087   27.0388 O   0  0  0  0  0  0  0  0  0  0  0  0
   -6.6719   -7.6584   26.1294 C   0  0  0  0  0  0  0  0  0  0  0  0
   -7.7904   -6.2240   26.1846 C   0  0  0  0  0  0  0  0  0  0  0  0
   -8.7383   -4.9595   26.8056 C   0  0  0  0  0  0  0  0  0  0  0  0
   -8.2522   -4.1700   27.7389 C   0  0  0  0  0  0  0  0  0  0  0  0
   -7.2233   -4.8272   28.0845 N   0  0  0  0  0  0  0  0  0  0  0  0
   -6.6035   -5.9384   26.9964 C   0  0  0  0  0  0  0  0  0  0  0  0
   -6.2735  -11.4215   24.5483 H   0  0  0  0  0  0  0  0  0  0  0  0
   -7.3911  -11.1577   25.0442 H   0  0  0  0  0  0  0  0  0  0  0  0
   -6.0819  -12.6306   24.6997 H   0  0  0  0  0  0  0  0  0  0  0  0
   -7.3734  -13.9554   25.9658 H   0  0  0  0  0  0  0  0  0  0  0  0
   -8.5055  -13.3379   27.2325 H   0  0  0  0  0  0  0  0  0  0  0  0
   -8.4245  -16.1069   26.1037 H   0  0  0  0  0  0  0  0  0  0  0  0
   -9.1262  -15.5461   27.2149 H   0  0  0  0  0  0  0  0  0  0  0  0
   -8.6952  -17.4251   29.3526 H   0  0  0  0  0  0  0  0  0  0  0  0
  -10.5297  -20.8960   30.6896 H   0  0  0  0  0  0  0  0  0  0  0  0
  -11.2837  -19.7952   29.8374 H   0  0  0  0  0  0  0  0  0  0  0  0
  -11.7267  -21.1310   26.5856 H   0  0  0  0  0  0  0  0  0  0  0  0
  -12.9442  -21.8524   27.4090 H   0  0  0  0  0  0  0  0  0  0  0  0
  -12.3053  -23.8789   27.1873 H   0  0  0  0  0  0  0  0  0  0  0  0
  -11.0527  -23.4281   26.1099 H   0  0  0  0  0  0  0  0  0  0  0  0
  -10.1874  -24.4207   28.3671 H   0  0  0  0  0  0  0  0  0  0  0  0
   -9.4962  -22.9224   28.0725 H   0  0  0  0  0  0  0  0  0  0  0  0
  -12.2942  -23.0616   29.2513 H   0  0  0  0  0  0  0  0  0  0  0  0
  -10.9951  -22.6515   30.2729 H   0  0  0  0  0  0  0  0  0  0  0  0
   -7.6965   -6.0438   25.0066 H   0  0  0  0  0  0  0  0  0  0  0  0
   -9.7273   -4.8831   26.4069 H   0  0  0  0  0  0  0  0  0  0  0  0
   -8.5719   -3.3133   28.2892 H   0  0  0  0  0  0  0  0  0  0  0  0
   -5.6930   -5.7108   27.3955 H   0  0  0  0  0  0  0  0  0  0  0  0
  1  2  1  0
  2  3  1  0
  3  4  1  0
  4  5  1  0
  5  6  1  0
  6  7  2  0
  6  8  1  0
  8  9  1  0
  9 10  1  0
 10 11  1  0
 11 12  1  0
 12 13  1  0
  2 14  1  0
 14 15  2  0
 14 16  1  0
 16 17  2  0
 17 18  1  0
 18 19  2  0
 19 20  1  0
 20 21  2  0
 13  9  1  0
 21 16  1  0
  1 22  1  0
  1 23  1  0
  1 24  1  0
  3 25  1  0
  3 26  1  0
  4 27  1  0
  4 28  1  0
  5 29  1  0
  8 30  1  0
  8 31  1  0
 10 32  1  0
 10 33  1  0
 11 34  1  0
 11 35  1  0
 12 36  1  0
 12 37  1  0
 13 38  1  0
 13 39  1  0
 17 40  1  0
 18 41  1  0
 19 42  1  0
 21 43  1  0
M  END
>  <Energy>  (524) 
2182.1341474738879

>  <compound_id>  (524) 
7835

>  <target_id>  (524) 
1

>  <reference_id>  (524) 
44

>  <inspiration_ids>  (524) 
[49, 44]

>  <energy_score>  (524) 
2075.382309424307

>  <distance_score>  (524) 
8.189127232927948

>  <path>  (524) 
/opt/xchem-fragalysis-2/maxwin/BulkDock/SCRATCH/511022/C7835-P44/C7835-P44.minimised.mol

>  <scratch_subdir>  (524) 
/opt/xchem-fragalysis-2/maxwin/BulkDock/SCRATCH/511022/C7835-P44

>  <fragmenstein_runtime>  (524) 
33.663339614868164

>  <fragmenstein_outcome>  (524) 
too moved

>  <fragmenstein_mode>  (524) 
expansion

>  <fragmenstein_error>  (524) 


$$$$
C47535-P49
     RDKit          3D

 47 48  0  0  0  0  0  0  0  0999 V2000
   -8.3185  -12.7767   26.2317 C   0  0  0  0  0  0  0  0  0  0  0  0
   -8.3685  -12.4378   27.6190 N   0  0  0  0  0  0  0  0  0  0  0  0
   -9.4923  -13.7575   27.6123 C   0  0  0  0  0  0  0  0  0  0  0  0
  -11.2503  -14.0235   27.5275 C   0  0  0  0  0  0  0  0  0  0  0  0
  -11.5858  -15.4282   28.1605 N   0  0  0  0  0  0  0  0  0  0  0  0
  -10.7852  -16.5986   28.3198 C   0  0  0  0  0  0  0  0  0  0  0  0
   -9.6222  -16.7568   28.0729 O   0  0  0  0  0  0  0  0  0  0  0  0
  -11.5969  -18.3717   29.0660 C   0  0  0  0  0  0  0  0  0  0  0  0
  -11.1846  -20.1051   29.1358 C   0  0  0  0  0  0  0  0  0  0  0  0
  -11.3603  -21.1675   28.0577 C   0  0  0  0  0  0  0  0  0  0  0  0
  -10.5185  -22.4280   28.3135 C   0  0  0  0  0  0  0  0  0  0  0  0
  -10.7503  -23.0470   29.6893 C   0  0  0  0  0  0  0  0  0  0  0  0
  -11.7378  -22.2703   30.5426 C   0  0  0  0  0  0  0  0  0  0  0  0
  -11.5579  -20.7468   30.5203 C   0  0  0  0  0  0  0  0  0  0  0  0
   -6.7076  -12.2812   28.3134 C   0  0  0  0  0  0  0  0  0  0  0  0
   -6.1739  -13.2362   28.7998 O   0  0  0  0  0  0  0  0  0  0  0  0
   -5.5880  -10.6861   28.5817 C   0  0  0  0  0  0  0  0  0  0  0  0
   -5.9138   -9.5450   29.6058 C   0  0  0  0  0  0  0  0  0  0  0  0
   -5.1647   -8.1153   30.1561 C   0  0  0  0  0  0  0  0  0  0  0  0
   -3.8638   -7.9380   29.7114 C   0  0  0  0  0  0  0  0  0  0  0  0
   -3.4043   -8.9304   28.8022 N   0  0  0  0  0  0  0  0  0  0  0  0
   -4.2991  -10.2041   28.2646 C   0  0  0  0  0  0  0  0  0  0  0  0
   -9.2561  -12.3174   25.9208 H   0  0  0  0  0  0  0  0  0  0  0  0
   -7.5031  -12.2426   25.7428 H   0  0  0  0  0  0  0  0  0  0  0  0
   -8.5167  -13.7676   25.7886 H   0  0  0  0  0  0  0  0  0  0  0  0
   -8.9661  -14.6877   27.3768 H   0  0  0  0  0  0  0  0  0  0  0  0
   -9.7040  -13.6043   28.6705 H   0  0  0  0  0  0  0  0  0  0  0  0
  -11.5409  -14.0504   26.4752 H   0  0  0  0  0  0  0  0  0  0  0  0
  -11.8075  -13.2842   28.0991 H   0  0  0  0  0  0  0  0  0  0  0  0
  -12.5436  -15.6600   28.3849 H   0  0  0  0  0  0  0  0  0  0  0  0
  -12.6566  -18.3254   29.1545 H   0  0  0  0  0  0  0  0  0  0  0  0
  -10.8555  -18.5044   29.8675 H   0  0  0  0  0  0  0  0  0  0  0  0
  -10.1073  -20.0410   29.1224 H   0  0  0  0  0  0  0  0  0  0  0  0
  -11.1435  -20.7739   27.0721 H   0  0  0  0  0  0  0  0  0  0  0  0
  -12.3708  -21.5301   28.0709 H   0  0  0  0  0  0  0  0  0  0  0  0
   -9.4524  -22.2048   28.2126 H   0  0  0  0  0  0  0  0  0  0  0  0
  -10.7437  -23.1705   27.5379 H   0  0  0  0  0  0  0  0  0  0  0  0
  -11.1124  -24.0759   29.5707 H   0  0  0  0  0  0  0  0  0  0  0  0
   -9.7943  -23.1382   30.2175 H   0  0  0  0  0  0  0  0  0  0  0  0
  -11.6961  -22.6290   31.5780 H   0  0  0  0  0  0  0  0  0  0  0  0
  -12.7506  -22.5048   30.1916 H   0  0  0  0  0  0  0  0  0  0  0  0
  -12.5003  -20.3580   30.8948 H   0  0  0  0  0  0  0  0  0  0  0  0
  -10.8108  -20.4522   31.2662 H   0  0  0  0  0  0  0  0  0  0  0  0
   -6.8055   -9.7707   30.1903 H   0  0  0  0  0  0  0  0  0  0  0  0
   -5.5963   -7.5019   30.9362 H   0  0  0  0  0  0  0  0  0  0  0  0
   -3.1751   -7.1704   30.0328 H   0  0  0  0  0  0  0  0  0  0  0  0
   -3.7045  -10.6090   27.4925 H   0  0  0  0  0  0  0  0  0  0  0  0
  1  2  1  0
  2  3  1  0
  3  4  1  0
  4  5  1  0
  5  6  1  0
  6  7  2  0
  6  8  1  0
  8  9  1  0
  9 10  1  0
 10 11  1  0
 11 12  1  0
 12 13  1  0
 13 14  1  0
  2 15  1  0
 15 16  2  0
 15 17  1  0
 17 18  2  0
 18 19  1  0
 19 20  2  0
 20 21  1  0
 21 22  2  0
 14  9  1  0
 22 17  1  0
  1 23  1  0
  1 24  1  0
  1 25  1  0
  3 26  1  0
  3 27  1  0
  4 28  1  0
  4 29  1  0
  5 30  1  0
  8 31  1  0
  8 32  1  0
  9 33  1  0
 10 34  1  0
 10 35  1  0
 11 36  1  0
 11 37  1  0
 12 38  1  0
 12 39  1  0
 13 40  1  0
 13 41  1  0
 14 42  1  0
 14 43  1  0
 18 44  1  0
 19 45  1  0
 20 46  1  0
 22 47  1  0
M  END
>  <Energy>  (525) 
522.76663023767378

>  <compound_id>  (525) 
47535

>  <target_id>  (525) 
1

>  <reference_id>  (525) 
49

>  <inspiration_ids>  (525) 
[49, 44]

>  <energy_score>  (525) 
464.4588714758037

>  <distance_score>  (525) 
9.482057801665826

>  <path>  (525) 
/opt/xchem-fragalysis-2/maxwin/BulkDock/SCRATCH/511022/C47535-P49/C47535-P49.minimised.mol

>  <scratch_subdir>  (525) 
/opt/xchem-fragalysis-2/maxwin/BulkDock/SCRATCH/511022/C47535-P49

>  <fragmenstein_runtime>  (525) 
15.75099778175354

>  <fragmenstein_outcome>  (525) 
too moved

>  <fragmenstein_mode>  (525) 
expansion

>  <fragmenstein_error>  (525) 


$$$$
C47535-P44
     RDKit          3D

 47 48  0  0  0  0  0  0  0  0999 V2000
   -7.1332  -13.6662   27.0909 C   0  0  0  0  0  0  0  0  0  0  0  0
   -7.2996  -13.1354   28.3193 N   0  0  0  0  0  0  0  0  0  0  0  0
   -7.3186  -15.0262   28.8049 C   0  0  0  0  0  0  0  0  0  0  0  0
   -8.1222  -16.8717   28.1766 C   0  0  0  0  0  0  0  0  0  0  0  0
   -9.3939  -18.4466   28.3241 N   0  0  0  0  0  0  0  0  0  0  0  0
   -9.1700  -20.1178   28.1427 C   0  0  0  0  0  0  0  0  0  0  0  0
   -8.1185  -20.7988   27.7741 O   0  0  0  0  0  0  0  0  0  0  0  0
  -10.7112  -21.2408   28.7082 C   0  0  0  0  0  0  0  0  0  0  0  0
  -11.1804  -22.2536   27.6689 C   0  0  0  0  0  0  0  0  0  0  0  0
  -12.4458  -22.1521   26.9026 C   0  0  0  0  0  0  0  0  0  0  0  0
  -12.8574  -23.2118   25.9129 C   0  0  0  0  0  0  0  0  0  0  0  0
  -12.4306  -24.5693   26.3711 C   0  0  0  0  0  0  0  0  0  0  0  0
  -10.9189  -24.5747   26.5508 C   0  0  0  0  0  0  0  0  0  0  0  0
  -10.4306  -23.5887   27.6155 C   0  0  0  0  0  0  0  0  0  0  0  0
   -5.9871  -11.6910   28.6534 C   0  0  0  0  0  0  0  0  0  0  0  0
   -4.9166  -11.9948   29.1795 O   0  0  0  0  0  0  0  0  0  0  0  0
   -6.5398   -9.5451   28.2283 C   0  0  0  0  0  0  0  0  0  0  0  0
   -5.5174   -8.0214   27.7582 C   0  0  0  0  0  0  0  0  0  0  0  0
   -6.0056   -6.0272   27.6146 C   0  0  0  0  0  0  0  0  0  0  0  0
   -6.2182   -5.5890   28.7809 C   0  0  0  0  0  0  0  0  0  0  0  0
   -6.3111   -6.8691   29.3876 N   0  0  0  0  0  0  0  0  0  0  0  0
   -6.4025   -8.6743   29.0627 C   0  0  0  0  0  0  0  0  0  0  0  0
   -8.1033  -13.1945   27.0137 H   0  0  0  0  0  0  0  0  0  0  0  0
   -6.7073  -12.9650   26.3901 H   0  0  0  0  0  0  0  0  0  0  0  0
   -7.8755  -14.3982   26.7181 H   0  0  0  0  0  0  0  0  0  0  0  0
   -8.1115  -14.7862   29.5058 H   0  0  0  0  0  0  0  0  0  0  0  0
   -6.5161  -15.1765   29.5476 H   0  0  0  0  0  0  0  0  0  0  0  0
   -8.0441  -16.5325   27.1524 H   0  0  0  0  0  0  0  0  0  0  0  0
   -8.9910  -16.3971   27.7174 H   0  0  0  0  0  0  0  0  0  0  0  0
  -10.3796  -18.2731   28.5430 H   0  0  0  0  0  0  0  0  0  0  0  0
  -11.5522  -20.7008   29.1797 H   0  0  0  0  0  0  0  0  0  0  0  0
  -10.5270  -21.8511   29.5780 H   0  0  0  0  0  0  0  0  0  0  0  0
  -10.8479  -21.5552   26.9696 H   0  0  0  0  0  0  0  0  0  0  0  0
  -12.3661  -21.2787   26.2418 H   0  0  0  0  0  0  0  0  0  0  0  0
  -13.1541  -21.8664   27.6335 H   0  0  0  0  0  0  0  0  0  0  0  0
  -12.4009  -22.9410   24.9564 H   0  0  0  0  0  0  0  0  0  0  0  0
  -13.9295  -23.1923   25.7073 H   0  0  0  0  0  0  0  0  0  0  0  0
  -12.7520  -25.3632   25.6920 H   0  0  0  0  0  0  0  0  0  0  0  0
  -12.9749  -24.7715   27.2835 H   0  0  0  0  0  0  0  0  0  0  0  0
  -10.4348  -24.3261   25.6068 H   0  0  0  0  0  0  0  0  0  0  0  0
  -10.5856  -25.5895   26.7771 H   0  0  0  0  0  0  0  0  0  0  0  0
  -10.4583  -24.0166   28.5984 H   0  0  0  0  0  0  0  0  0  0  0  0
   -9.3473  -23.4901   27.5124 H   0  0  0  0  0  0  0  0  0  0  0  0
   -4.4394   -7.9713   27.8747 H   0  0  0  0  0  0  0  0  0  0  0  0
   -6.9666   -5.7500   27.1050 H   0  0  0  0  0  0  0  0  0  0  0  0
   -6.1158   -4.5910   29.1893 H   0  0  0  0  0  0  0  0  0  0  0  0
   -6.5627   -9.3418   29.9518 H   0  0  0  0  0  0  0  0  0  0  0  0
  1  2  1  0
  2  3  1  0
  3  4  1  0
  4  5  1  0
  5  6  1  0
  6  7  2  0
  6  8  1  0
  8  9  1  0
  9 10  1  0
 10 11  1  0
 11 12  1  0
 12 13  1  0
 13 14  1  0
  2 15  1  0
 15 16  2  0
 15 17  1  0
 17 18  2  0
 18 19  1  0
 19 20  2  0
 20 21  1  0
 21 22  2  0
 14  9  1  0
 22 17  1  0
  1 23  1  0
  1 24  1  0
  1 25  1  0
  3 26  1  0
  3 27  1  0
  4 28  1  0
  4 29  1  0
  5 30  1  0
  8 31  1  0
  8 32  1  0
  9 33  1  0
 10 34  1  0
 10 35  1  0
 11 36  1  0
 11 37  1  0
 12 38  1  0
 12 39  1  0
 13 40  1  0
 13 41  1  0
 14 42  1  0
 14 43  1  0
 18 44  1  0
 19 45  1  0
 20 46  1  0
 22 47  1  0
M  END
>  <Energy>  (526) 
1374.9447714916325

>  <compound_id>  (526) 
47535

>  <target_id>  (526) 
1

>  <reference_id>  (526) 
44

>  <inspiration_ids>  (526) 
[49, 44]

>  <energy_score>  (526) 
1316.6370127297623

>  <distance_score>  (526) 
8.105831318210695

>  <path>  (526) 
/opt/xchem-fragalysis-2/maxwin/BulkDock/SCRATCH/511022/C47535-P44/C47535-P44.minimised.mol

>  <scratch_subdir>  (526) 
/opt/xchem-fragalysis-2/maxwin/BulkDock/SCRATCH/511022/C47535-P44

>  <fragmenstein_runtime>  (526) 
20.089484453201294

>  <fragmenstein_outcome>  (526) 
too moved

>  <fragmenstein_mode>  (526) 
expansion

>  <fragmenstein_error>  (526) 


$$$$
C47536-P49
     RDKit          3D

 45 47  0  0  0  0  0  0  0  0999 V2000
  -10.5552  -13.9894   26.3877 C   0  0  0  0  0  0  0  0  0  0  0  0
   -9.2793  -14.2815   25.6563 N   0  0  0  0  0  0  0  0  0  0  0  0
   -9.0416  -15.2564   26.9292 C   0  0  0  0  0  0  0  0  0  0  0  0
   -7.9974  -16.5758   27.2951 C   0  0  0  0  0  0  0  0  0  0  0  0
   -9.0096  -17.6277   27.6587 N   0  0  0  0  0  0  0  0  0  0  0  0
   -8.9360  -19.5095   27.5819 C   0  0  0  0  0  0  0  0  0  0  0  0
   -7.8887  -20.1005   27.2765 O   0  0  0  0  0  0  0  0  0  0  0  0
  -10.3800  -20.4609   28.1037 C   0  0  0  0  0  0  0  0  0  0  0  0
  -10.5659  -22.0115   28.1117 C   0  0  0  0  0  0  0  0  0  0  0  0
   -9.4375  -23.0354   28.1625 C   0  0  0  0  0  0  0  0  0  0  0  0
  -10.1552  -24.3639   28.4630 C   0  0  0  0  0  0  0  0  0  0  0  0
  -11.3005  -23.9641   29.3531 C   0  0  0  0  0  0  0  0  0  0  0  0
  -11.0858  -23.0755   30.5453 C   0  0  0  0  0  0  0  0  0  0  0  0
  -11.5064  -22.4877   29.2154 C   0  0  0  0  0  0  0  0  0  0  0  0
   -8.6266  -13.0416   25.2842 C   0  0  0  0  0  0  0  0  0  0  0  0
   -7.8116  -12.3875   25.8737 O   0  0  0  0  0  0  0  0  0  0  0  0
   -9.0499  -12.3195   24.0165 C   0  0  0  0  0  0  0  0  0  0  0  0
   -8.3042  -11.1837   23.6066 C   0  0  0  0  0  0  0  0  0  0  0  0
   -8.7899  -10.2378   22.7063 C   0  0  0  0  0  0  0  0  0  0  0  0
  -10.0477  -10.4458   22.2106 C   0  0  0  0  0  0  0  0  0  0  0  0
  -10.7967  -11.5230   22.5356 N   0  0  0  0  0  0  0  0  0  0  0  0
  -10.2774  -12.4340   23.4148 C   0  0  0  0  0  0  0  0  0  0  0  0
  -10.4289  -13.5462   27.3820 H   0  0  0  0  0  0  0  0  0  0  0  0
  -11.2752  -14.8166   26.3222 H   0  0  0  0  0  0  0  0  0  0  0  0
  -11.0670  -13.1867   25.8447 H   0  0  0  0  0  0  0  0  0  0  0  0
   -8.5218  -14.4919   27.4761 H   0  0  0  0  0  0  0  0  0  0  0  0
   -9.9621  -15.5528   27.4392 H   0  0  0  0  0  0  0  0  0  0  0  0
   -7.4113  -16.7927   26.4083 H   0  0  0  0  0  0  0  0  0  0  0  0
   -7.2611  -16.6001   28.0838 H   0  0  0  0  0  0  0  0  0  0  0  0
   -9.9552  -17.3486   27.8388 H   0  0  0  0  0  0  0  0  0  0  0  0
  -11.1989  -20.2298   27.4285 H   0  0  0  0  0  0  0  0  0  0  0  0
  -10.6287  -20.0765   29.1031 H   0  0  0  0  0  0  0  0  0  0  0  0
  -11.1044  -22.2378   27.1762 H   0  0  0  0  0  0  0  0  0  0  0  0
   -8.7763  -22.8453   28.9942 H   0  0  0  0  0  0  0  0  0  0  0  0
   -8.8572  -23.0811   27.2475 H   0  0  0  0  0  0  0  0  0  0  0  0
   -9.4886  -25.0828   28.9485 H   0  0  0  0  0  0  0  0  0  0  0  0
  -10.5393  -24.8079   27.5377 H   0  0  0  0  0  0  0  0  0  0  0  0
  -12.1460  -24.6320   29.3233 H   0  0  0  0  0  0  0  0  0  0  0  0
  -11.8283  -23.1048   31.3380 H   0  0  0  0  0  0  0  0  0  0  0  0
  -10.0785  -22.9384   30.9170 H   0  0  0  0  0  0  0  0  0  0  0  0
  -12.4956  -22.0735   29.1645 H   0  0  0  0  0  0  0  0  0  0  0  0
   -7.3533  -10.9843   24.0760 H   0  0  0  0  0  0  0  0  0  0  0  0
   -8.2262   -9.3665   22.4189 H   0  0  0  0  0  0  0  0  0  0  0  0
  -10.5058   -9.7547   21.5099 H   0  0  0  0  0  0  0  0  0  0  0  0
  -10.9514  -13.2510   23.6439 H   0  0  0  0  0  0  0  0  0  0  0  0
  1  2  1  0
  2  3  1  0
  3  4  1  0
  4  5  1  0
  5  6  1  0
  6  7  2  0
  6  8  1  0
  8  9  1  0
  9 10  1  0
 10 11  1  0
 11 12  1  0
 12 13  1  0
 13 14  1  0
  2 15  1  0
 15 16  2  0
 15 17  1  0
 17 18  2  0
 18 19  1  0
 19 20  2  0
 20 21  1  0
 21 22  2  0
 14  9  1  0
 22 17  1  0
 14 12  1  0
  1 23  1  0
  1 24  1  0
  1 25  1  0
  3 26  1  0
  3 27  1  0
  4 28  1  0
  4 29  1  0
  5 30  1  0
  8 31  1  0
  8 32  1  0
  9 33  1  0
 10 34  1  0
 10 35  1  0
 11 36  1  0
 11 37  1  0
 12 38  1  0
 13 39  1  0
 13 40  1  0
 14 41  1  0
 18 42  1  0
 19 43  1  0
 20 44  1  0
 22 45  1  0
M  END
>  <Energy>  (527) 
287.89280111547811

>  <compound_id>  (527) 
47536

>  <target_id>  (527) 
1

>  <reference_id>  (527) 
49

>  <inspiration_ids>  (527) 
[49, 44]

>  <energy_score>  (527) 
162.92464797522837

>  <distance_score>  (527) 
11.24831436822714

>  <path>  (527) 
/opt/xchem-fragalysis-2/maxwin/BulkDock/SCRATCH/511022/C47536-P49/C47536-P49.minimised.mol

>  <scratch_subdir>  (527) 
/opt/xchem-fragalysis-2/maxwin/BulkDock/SCRATCH/511022/C47536-P49

>  <fragmenstein_runtime>  (527) 
23.087077379226685

>  <fragmenstein_outcome>  (527) 
too moved

>  <fragmenstein_mode>  (527) 
expansion

>  <fragmenstein_error>  (527) 


$$$$
C47536-P44
     RDKit          3D

 45 47  0  0  0  0  0  0  0  0999 V2000
   -6.9145  -10.0263   29.9939 C   0  0  0  0  0  0  0  0  0  0  0  0
   -6.6678   -9.6651   28.7575 N   0  0  0  0  0  0  0  0  0  0  0  0
   -5.9073  -11.6942   28.6931 C   0  0  0  0  0  0  0  0  0  0  0  0
   -6.9469  -13.5270   28.3447 C   0  0  0  0  0  0  0  0  0  0  0  0
   -7.1771  -15.4152   28.4741 N   0  0  0  0  0  0  0  0  0  0  0  0
   -8.3042  -16.4997   27.6738 C   0  0  0  0  0  0  0  0  0  0  0  0
   -9.0914  -16.1648   26.8010 O   0  0  0  0  0  0  0  0  0  0  0  0
   -8.6169  -18.4571   28.1742 C   0  0  0  0  0  0  0  0  0  0  0  0
   -9.6012  -20.3619   28.0689 C   0  0  0  0  0  0  0  0  0  0  0  0
  -11.0009  -20.8477   29.3262 C   0  0  0  0  0  0  0  0  0  0  0  0
  -11.7634  -21.9669   28.6944 C   0  0  0  0  0  0  0  0  0  0  0  0
  -10.8731  -22.6985   27.8258 C   0  0  0  0  0  0  0  0  0  0  0  0
   -9.9175  -23.7312   27.9525 C   0  0  0  0  0  0  0  0  0  0  0  0
   -9.3174  -22.3218   28.2375 C   0  0  0  0  0  0  0  0  0  0  0  0
   -5.7440   -7.9001   28.7122 C   0  0  0  0  0  0  0  0  0  0  0  0
   -4.5458   -7.8761   28.7322 O   0  0  0  0  0  0  0  0  0  0  0  0
   -6.4454   -5.9228   28.6026 C   0  0  0  0  0  0  0  0  0  0  0  0
   -7.6882   -5.2421   27.6262 C   0  0  0  0  0  0  0  0  0  0  0  0
   -8.4147   -4.0134   27.4650 C   0  0  0  0  0  0  0  0  0  0  0  0
   -7.8654   -3.1032   28.2246 C   0  0  0  0  0  0  0  0  0  0  0  0
   -6.8414   -3.4895   29.0389 N   0  0  0  0  0  0  0  0  0  0  0  0
   -6.0871   -4.6480   29.1709 C   0  0  0  0  0  0  0  0  0  0  0  0
   -6.4137   -9.2770   30.5185 H   0  0  0  0  0  0  0  0  0  0  0  0
   -7.9852  -10.0939   30.0582 H   0  0  0  0  0  0  0  0  0  0  0  0
   -6.3239  -10.7892   30.4696 H   0  0  0  0  0  0  0  0  0  0  0  0
   -5.4157  -11.8086   27.6436 H   0  0  0  0  0  0  0  0  0  0  0  0
   -5.0407  -11.8912   29.3323 H   0  0  0  0  0  0  0  0  0  0  0  0
   -7.7253  -13.3887   27.5973 H   0  0  0  0  0  0  0  0  0  0  0  0
   -7.0294  -13.7477   29.4122 H   0  0  0  0  0  0  0  0  0  0  0  0
   -6.5841  -15.9547   29.0934 H   0  0  0  0  0  0  0  0  0  0  0  0
   -9.5464  -18.1381   27.7824 H   0  0  0  0  0  0  0  0  0  0  0  0
   -8.2141  -18.2316   29.1536 H   0  0  0  0  0  0  0  0  0  0  0  0
  -10.1041  -20.5791   27.1437 H   0  0  0  0  0  0  0  0  0  0  0  0
  -10.6918  -21.1904   30.2983 H   0  0  0  0  0  0  0  0  0  0  0  0
  -11.7422  -20.0915   29.5577 H   0  0  0  0  0  0  0  0  0  0  0  0
  -12.5569  -21.5350   28.0888 H   0  0  0  0  0  0  0  0  0  0  0  0
  -12.1996  -22.5631   29.4680 H   0  0  0  0  0  0  0  0  0  0  0  0
  -11.3131  -22.6740   26.8376 H   0  0  0  0  0  0  0  0  0  0  0  0
   -9.9390  -24.4424   28.7431 H   0  0  0  0  0  0  0  0  0  0  0  0
   -9.6568  -24.2231   27.0183 H   0  0  0  0  0  0  0  0  0  0  0  0
   -8.2847  -22.5035   27.8935 H   0  0  0  0  0  0  0  0  0  0  0  0
   -8.0546   -5.7992   26.7755 H   0  0  0  0  0  0  0  0  0  0  0  0
   -9.1916   -3.8495   26.7356 H   0  0  0  0  0  0  0  0  0  0  0  0
   -8.1680   -2.0654   28.2201 H   0  0  0  0  0  0  0  0  0  0  0  0
   -5.7152   -4.5611   30.1843 H   0  0  0  0  0  0  0  0  0  0  0  0
  1  2  1  0
  2  3  1  0
  3  4  1  0
  4  5  1  0
  5  6  1  0
  6  7  2  0
  6  8  1  0
  8  9  1  0
  9 10  1  0
 10 11  1  0
 11 12  1  0
 12 13  1  0
 13 14  1  0
  2 15  1  0
 15 16  2  0
 15 17  1  0
 17 18  2  0
 18 19  1  0
 19 20  2  0
 20 21  1  0
 21 22  2  0
 14  9  1  0
 22 17  1  0
 14 12  1  0
  1 23  1  0
  1 24  1  0
  1 25  1  0
  3 26  1  0
  3 27  1  0
  4 28  1  0
  4 29  1  0
  5 30  1  0
  8 31  1  0
  8 32  1  0
  9 33  1  0
 10 34  1  0
 10 35  1  0
 11 36  1  0
 11 37  1  0
 12 38  1  0
 13 39  1  0
 13 40  1  0
 14 41  1  0
 18 42  1  0
 19 43  1  0
 20 44  1  0
 22 45  1  0
M  END
>  <Energy>  (528) 
1274.6239848331679

>  <compound_id>  (528) 
47536

>  <target_id>  (528) 
1

>  <reference_id>  (528) 
44

>  <inspiration_ids>  (528) 
[49, 44]

>  <energy_score>  (528) 
1149.6558316929213

>  <distance_score>  (528) 
8.512159941887766

>  <path>  (528) 
/opt/xchem-fragalysis-2/maxwin/BulkDock/SCRATCH/511022/C47536-P44/C47536-P44.minimised.mol

>  <scratch_subdir>  (528) 
/opt/xchem-fragalysis-2/maxwin/BulkDock/SCRATCH/511022/C47536-P44

>  <fragmenstein_runtime>  (528) 
23.711020708084106

>  <fragmenstein_outcome>  (528) 
too moved

>  <fragmenstein_mode>  (528) 
expansion

>  <fragmenstein_error>  (528) 


$$$$
C67926-P7
     RDKit          3D

 38 40  0  0  0  0  0  0  0  0999 V2000
  -11.3253   -3.7980   34.6173 C   0  0  0  0  0  0  0  0  0  0  0  0
  -11.0405   -5.7591   35.0023 C   0  0  0  0  0  0  0  0  0  0  0  0
   -9.8530   -5.4683   35.8754 C   0  0  0  0  0  0  0  0  0  0  0  0
  -12.1577   -4.9152   36.1975 C   0  0  0  0  0  0  0  0  0  0  0  0
  -13.3770   -5.0318   36.3747 O   0  0  0  0  0  0  0  0  0  0  0  0
  -11.6198   -4.0205   37.1048 O   0  0  0  0  0  0  0  0  0  0  0  0
  -10.4570   -7.2451   33.7730 N   0  0  0  0  0  0  0  0  0  0  0  0
   -9.1953   -7.2841   33.4500 C   0  0  0  0  0  0  0  0  0  0  0  0
   -9.6847   -8.6279   33.0883 C   0  0  0  0  0  0  0  0  0  0  0  0
   -9.6701  -10.3814   32.0802 C   0  0  0  0  0  0  0  0  0  0  0  0
   -9.2996  -11.1153   30.1905 N   0  0  0  0  0  0  0  0  0  0  0  0
   -9.1651  -13.3135   29.3170 C   0  0  0  0  0  0  0  0  0  0  0  0
   -9.5114  -14.1380   30.2554 O   0  0  0  0  0  0  0  0  0  0  0  0
   -8.4975  -14.6583   27.7025 C   0  0  0  0  0  0  0  0  0  0  0  0
   -8.3351  -16.9081   27.5633 C   0  0  0  0  0  0  0  0  0  0  0  0
   -9.3235  -18.2319   27.3557 C   0  0  0  0  0  0  0  0  0  0  0  0
   -9.5713  -20.6508   27.5680 S   0  0  0  0  0  0  0  0  0  0  0  0
   -7.7902  -20.6426   27.4805 C   0  0  0  0  0  0  0  0  0  0  0  0
   -7.2719  -21.8392   27.6964 N   0  0  0  0  0  0  0  0  0  0  0  0
   -6.0813  -21.4211   27.5182 C   0  0  0  0  0  0  0  0  0  0  0  0
   -6.4747  -19.8759   26.9988 C   0  0  0  0  0  0  0  0  0  0  0  0
   -7.8676  -18.7888   27.8447 N   0  0  0  0  0  0  0  0  0  0  0  0
  -10.7271   -9.0389   32.9486 N   0  0  0  0  0  0  0  0  0  0  0  0
  -11.4100   -3.4365   33.5793 H   0  0  0  0  0  0  0  0  0  0  0  0
  -12.1858   -3.2534   35.0478 H   0  0  0  0  0  0  0  0  0  0  0  0
  -10.6023   -3.1141   35.1100 H   0  0  0  0  0  0  0  0  0  0  0  0
   -8.8107   -5.6682   35.5434 H   0  0  0  0  0  0  0  0  0  0  0  0
   -9.9776   -5.9675   36.7426 H   0  0  0  0  0  0  0  0  0  0  0  0
   -9.9029   -4.4589   36.2770 H   0  0  0  0  0  0  0  0  0  0  0  0
  -12.4117   -3.6390   37.5471 H   0  0  0  0  0  0  0  0  0  0  0  0
   -8.2881   -6.6764   33.4884 H   0  0  0  0  0  0  0  0  0  0  0  0
   -8.7549   -8.1541   32.8087 H   0  0  0  0  0  0  0  0  0  0  0  0
   -9.1161  -10.4471   29.4456 H   0  0  0  0  0  0  0  0  0  0  0  0
   -9.3387  -14.5465   27.0364 H   0  0  0  0  0  0  0  0  0  0  0  0
   -7.6445  -14.1385   27.2721 H   0  0  0  0  0  0  0  0  0  0  0  0
  -10.0511  -17.5992   26.8281 H   0  0  0  0  0  0  0  0  0  0  0  0
   -5.3105  -22.1091   27.2176 H   0  0  0  0  0  0  0  0  0  0  0  0
   -5.8344  -19.3947   26.2982 H   0  0  0  0  0  0  0  0  0  0  0  0
  1  2  1  0
  2  3  1  0
  2  4  1  0
  4  5  2  0
  4  6  1  0
  2  7  1  0
  7  8  1  0
  8  9  2  0
  9 10  1  0
 10 11  1  0
 11 12  1  0
 12 13  2  0
 12 14  1  0
 14 15  1  0
 15 16  2  0
 16 17  1  0
 17 18  1  0
 18 19  2  0
 19 20  1  0
 20 21  2  0
 21 22  1  0
 10 23  2  0
 23  7  1  0
 22 15  1  0
 22 18  1  0
  1 24  1  0
  1 25  1  0
  1 26  1  0
  3 27  1  0
  3 28  1  0
  3 29  1  0
  6 30  1  0
  8 31  1  0
  9 32  1  0
 11 33  1  0
 14 34  1  0
 14 35  1  0
 16 36  1  0
 20 37  1  0
 21 38  1  0
M  END
>  <Energy>  (529) 
3204.9338764655163

>  <compound_id>  (529) 
67926

>  <target_id>  (529) 
1

>  <reference_id>  (529) 
7

>  <inspiration_ids>  (529) 
[7, 45]

>  <energy_score>  (529) 
3133.9375877388998

>  <distance_score>  (529) 
7.620926022402731

>  <path>  (529) 
/opt/xchem-fragalysis-2/maxwin/BulkDock/SCRATCH/511022/C67926-P7/C67926-P7.minimised.mol

>  <scratch_subdir>  (529) 
/opt/xchem-fragalysis-2/maxwin/BulkDock/SCRATCH/511022/C67926-P7

>  <fragmenstein_runtime>  (529) 
14.648611068725586

>  <fragmenstein_outcome>  (529) 
too moved

>  <fragmenstein_mode>  (529) 
expansion

>  <fragmenstein_error>  (529) 


$$$$
C67926-P45
     RDKit          3D

 38 40  0  0  0  0  0  0  0  0999 V2000
  -14.6134  -13.2221   34.7916 C   0  0  0  0  0  0  0  0  0  0  0  0
  -15.2536  -14.4417   35.4592 C   0  0  0  0  0  0  0  0  0  0  0  0
  -15.9610  -13.9381   36.7412 C   0  0  0  0  0  0  0  0  0  0  0  0
  -16.3356  -15.0352   34.5530 C   0  0  0  0  0  0  0  0  0  0  0  0
  -16.4705  -16.1924   34.1817 O   0  0  0  0  0  0  0  0  0  0  0  0
  -17.2890  -14.1344   34.2072 O   0  0  0  0  0  0  0  0  0  0  0  0
  -14.2440  -15.4751   35.7580 N   0  0  0  0  0  0  0  0  0  0  0  0
  -14.1278  -16.1838   36.9230 C   0  0  0  0  0  0  0  0  0  0  0  0
  -13.2840  -17.2325   36.6437 C   0  0  0  0  0  0  0  0  0  0  0  0
  -12.8363  -17.0452   35.3188 C   0  0  0  0  0  0  0  0  0  0  0  0
  -11.9663  -17.8662   34.6250 N   0  0  0  0  0  0  0  0  0  0  0  0
  -11.5443  -19.2469   34.8737 C   0  0  0  0  0  0  0  0  0  0  0  0
  -11.9098  -20.0422   35.7005 O   0  0  0  0  0  0  0  0  0  0  0  0
  -10.3309  -19.7152   33.9554 C   0  0  0  0  0  0  0  0  0  0  0  0
  -10.5460  -20.6415   32.7617 C   0  0  0  0  0  0  0  0  0  0  0  0
  -11.6678  -21.3279   32.4184 C   0  0  0  0  0  0  0  0  0  0  0  0
  -11.8320  -22.0952   30.7798 S   0  0  0  0  0  0  0  0  0  0  0  0
  -10.2720  -21.4426   30.1839 C   0  0  0  0  0  0  0  0  0  0  0  0
   -9.2992  -22.1903   29.0123 N   0  0  0  0  0  0  0  0  0  0  0  0
   -7.4536  -22.3542   29.7082 C   0  0  0  0  0  0  0  0  0  0  0  0
   -7.5899  -21.2351   31.6562 C   0  0  0  0  0  0  0  0  0  0  0  0
   -9.5712  -20.7272   31.7248 N   0  0  0  0  0  0  0  0  0  0  0  0
  -13.3266  -15.8878   34.8298 N   0  0  0  0  0  0  0  0  0  0  0  0
  -13.8521  -12.7725   35.4375 H   0  0  0  0  0  0  0  0  0  0  0  0
  -14.1463  -13.5016   33.8486 H   0  0  0  0  0  0  0  0  0  0  0  0
  -15.3496  -12.4433   34.5619 H   0  0  0  0  0  0  0  0  0  0  0  0
  -16.5650  -14.7267   37.2056 H   0  0  0  0  0  0  0  0  0  0  0  0
  -16.6456  -13.1092   36.5240 H   0  0  0  0  0  0  0  0  0  0  0  0
  -15.2386  -13.5764   37.4823 H   0  0  0  0  0  0  0  0  0  0  0  0
  -17.9257  -14.6416   33.6632 H   0  0  0  0  0  0  0  0  0  0  0  0
  -14.6971  -15.9644   37.8142 H   0  0  0  0  0  0  0  0  0  0  0  0
  -13.0235  -18.0426   37.3112 H   0  0  0  0  0  0  0  0  0  0  0  0
  -11.5040  -17.5218   33.7893 H   0  0  0  0  0  0  0  0  0  0  0  0
   -9.8158  -18.8072   33.6333 H   0  0  0  0  0  0  0  0  0  0  0  0
   -9.6220  -20.2109   34.6333 H   0  0  0  0  0  0  0  0  0  0  0  0
  -12.5400  -21.3765   33.0635 H   0  0  0  0  0  0  0  0  0  0  0  0
   -6.7727  -23.0095   29.1115 H   0  0  0  0  0  0  0  0  0  0  0  0
   -7.2007  -21.2070   32.7227 H   0  0  0  0  0  0  0  0  0  0  0  0
  1  2  1  0
  2  3  1  0
  2  4  1  0
  4  5  2  0
  4  6  1  0
  2  7  1  0
  7  8  1  0
  8  9  2  0
  9 10  1  0
 10 11  1  0
 11 12  1  0
 12 13  2  0
 12 14  1  0
 14 15  1  0
 15 16  2  0
 16 17  1  0
 17 18  1  0
 18 19  2  0
 19 20  1  0
 20 21  2  0
 21 22  1  0
 10 23  2  0
 23  7  1  0
 22 15  1  0
 22 18  1  0
  1 24  1  0
  1 25  1  0
  1 26  1  0
  3 27  1  0
  3 28  1  0
  3 29  1  0
  6 30  1  0
  8 31  1  0
  9 32  1  0
 11 33  1  0
 14 34  1  0
 14 35  1  0
 16 36  1  0
 20 37  1  0
 21 38  1  0
M  END
>  <Energy>  (530) 
781.18454131135206

>  <compound_id>  (530) 
67926

>  <target_id>  (530) 
1

>  <reference_id>  (530) 
45

>  <inspiration_ids>  (530) 
[7, 45]

>  <energy_score>  (530) 
710.1882525847454

>  <distance_score>  (530) 
11.926105745049195

>  <path>  (530) 
/opt/xchem-fragalysis-2/maxwin/BulkDock/SCRATCH/511022/C67926-P45/C67926-P45.minimised.mol

>  <scratch_subdir>  (530) 
/opt/xchem-fragalysis-2/maxwin/BulkDock/SCRATCH/511022/C67926-P45

>  <fragmenstein_runtime>  (530) 
19.063249588012695

>  <fragmenstein_outcome>  (530) 
too moved

>  <fragmenstein_mode>  (530) 
expansion

>  <fragmenstein_error>  (530) 


$$$$
C67928-P7
     RDKit          3D

 34 36  0  0  0  0  0  0  0  0999 V2000
   -9.1238  -10.8099   32.0237 C   0  0  0  0  0  0  0  0  0  0  0  0
   -8.2468  -11.7565   32.5535 N   0  0  0  0  0  0  0  0  0  0  0  0
   -8.6739  -12.9704   33.1138 C   0  0  0  0  0  0  0  0  0  0  0  0
   -7.9572  -14.3571   32.4904 C   0  0  0  0  0  0  0  0  0  0  0  0
   -8.2213  -15.9742   33.1026 C   0  0  0  0  0  0  0  0  0  0  0  0
   -9.3417  -16.2850   33.5534 O   0  0  0  0  0  0  0  0  0  0  0  0
   -7.1040  -17.3383   33.1490 C   0  0  0  0  0  0  0  0  0  0  0  0
   -6.5542  -18.2156   31.9960 N   0  0  0  0  0  0  0  0  0  0  0  0
   -6.0042  -19.9086   31.9708 C   0  0  0  0  0  0  0  0  0  0  0  0
   -6.0886  -20.6185   32.8997 O   0  0  0  0  0  0  0  0  0  0  0  0
   -5.1816  -20.8289   30.5322 C   0  0  0  0  0  0  0  0  0  0  0  0
   -5.2539  -21.5313   28.7088 C   0  0  0  0  0  0  0  0  0  0  0  0
   -6.4914  -22.3133   27.8179 C   0  0  0  0  0  0  0  0  0  0  0  0
   -5.6221  -22.9725   27.1526 C   0  0  0  0  0  0  0  0  0  0  0  0
   -4.5204  -23.1997   28.0922 C   0  0  0  0  0  0  0  0  0  0  0  0
   -3.8223  -24.2159   27.9627 N   0  0  0  0  0  0  0  0  0  0  0  0
   -4.3973  -24.1977   29.0847 C   0  0  0  0  0  0  0  0  0  0  0  0
   -4.0199  -23.5082   30.3740 C   0  0  0  0  0  0  0  0  0  0  0  0
   -4.1503  -22.3213   29.8079 N   0  0  0  0  0  0  0  0  0  0  0  0
   -7.0671  -13.6725   31.4875 C   0  0  0  0  0  0  0  0  0  0  0  0
   -6.9184  -12.2426   31.8292 N   0  0  0  0  0  0  0  0  0  0  0  0
   -8.8870  -10.5554   31.0044 H   0  0  0  0  0  0  0  0  0  0  0  0
   -9.5270  -10.0522   32.6659 H   0  0  0  0  0  0  0  0  0  0  0  0
   -9.9717  -11.3467   31.9366 H   0  0  0  0  0  0  0  0  0  0  0  0
   -9.6844  -13.2249   33.1234 H   0  0  0  0  0  0  0  0  0  0  0  0
   -7.4190  -18.0023   33.9593 H   0  0  0  0  0  0  0  0  0  0  0  0
   -6.2128  -16.8075   33.4523 H   0  0  0  0  0  0  0  0  0  0  0  0
   -6.4680  -17.8283   31.0777 H   0  0  0  0  0  0  0  0  0  0  0  0
   -5.6812  -20.9662   27.6612 H   0  0  0  0  0  0  0  0  0  0  0  0
   -7.5033  -22.0467   27.6011 H   0  0  0  0  0  0  0  0  0  0  0  0
   -5.8626  -23.4583   26.2265 H   0  0  0  0  0  0  0  0  0  0  0  0
   -5.5418  -24.4749   29.0840 H   0  0  0  0  0  0  0  0  0  0  0  0
   -4.3462  -23.5390   31.4079 H   0  0  0  0  0  0  0  0  0  0  0  0
   -6.4646  -14.0595   30.6665 H   0  0  0  0  0  0  0  0  0  0  0  0
  1  2  1  0
  2  3  1  0
  3  4  2  0
  4  5  1  0
  5  6  2  0
  5  7  1  0
  7  8  1  0
  8  9  1  0
  9 10  2  0
  9 11  1  0
 11 12  2  0
 12 13  1  0
 13 14  2  0
 14 15  1  0
 15 16  2  0
 16 17  1  0
 17 18  2  0
 18 19  1  0
  4 20  1  0
 20 21  2  0
 21  2  1  0
 19 11  1  0
 19 15  1  0
  1 22  1  0
  1 23  1  0
  1 24  1  0
  3 25  1  0
  7 26  1  0
  7 27  1  0
  8 28  1  0
 12 29  1  0
 13 30  1  0
 14 31  1  0
 17 32  1  0
 18 33  1  0
 20 34  1  0
M  END
>  <Energy>  (531) 
1211.3082612359751

>  <compound_id>  (531) 
67928

>  <target_id>  (531) 
1

>  <reference_id>  (531) 
7

>  <inspiration_ids>  (531) 
[7, 45]

>  <energy_score>  (531) 
1138.9033973025414

>  <distance_score>  (531) 
10.0015212690045

>  <path>  (531) 
/opt/xchem-fragalysis-2/maxwin/BulkDock/SCRATCH/511022/C67928-P7/C67928-P7.minimised.mol

>  <scratch_subdir>  (531) 
/opt/xchem-fragalysis-2/maxwin/BulkDock/SCRATCH/511022/C67928-P7

>  <fragmenstein_runtime>  (531) 
18.087215900421143

>  <fragmenstein_outcome>  (531) 
too moved

>  <fragmenstein_mode>  (531) 
expansion

>  <fragmenstein_error>  (531) 


$$$$
C67928-P45
     RDKit          3D

 34 36  0  0  0  0  0  0  0  0999 V2000
  -17.1639   -9.0402   37.1575 C   0  0  0  0  0  0  0  0  0  0  0  0
  -16.3721  -10.2111   36.8489 N   0  0  0  0  0  0  0  0  0  0  0  0
  -16.5716  -11.1155   35.8400 C   0  0  0  0  0  0  0  0  0  0  0  0
  -15.6125  -12.1118   35.9766 C   0  0  0  0  0  0  0  0  0  0  0  0
  -15.4922  -13.3452   35.1508 C   0  0  0  0  0  0  0  0  0  0  0  0
  -16.0898  -13.4643   34.0790 O   0  0  0  0  0  0  0  0  0  0  0  0
  -14.5799  -14.5344   35.6322 C   0  0  0  0  0  0  0  0  0  0  0  0
  -14.3057  -15.9279   35.1377 N   0  0  0  0  0  0  0  0  0  0  0  0
  -13.4019  -16.9624   35.6435 C   0  0  0  0  0  0  0  0  0  0  0  0
  -12.7119  -16.9847   36.6262 O   0  0  0  0  0  0  0  0  0  0  0  0
  -13.3464  -18.2991   34.8650 C   0  0  0  0  0  0  0  0  0  0  0  0
  -14.4861  -19.0061   34.6755 C   0  0  0  0  0  0  0  0  0  0  0  0
  -14.4394  -20.3893   34.1858 C   0  0  0  0  0  0  0  0  0  0  0  0
  -13.2787  -21.0206   33.9312 C   0  0  0  0  0  0  0  0  0  0  0  0
  -12.0546  -20.3204   34.1025 C   0  0  0  0  0  0  0  0  0  0  0  0
  -10.8219  -20.7109   33.8574 N   0  0  0  0  0  0  0  0  0  0  0  0
  -10.0371  -19.6565   34.2361 C   0  0  0  0  0  0  0  0  0  0  0  0
  -10.8007  -18.5990   34.6784 C   0  0  0  0  0  0  0  0  0  0  0  0
  -12.1180  -18.9944   34.5813 N   0  0  0  0  0  0  0  0  0  0  0  0
  -14.8606  -11.6498   37.0868 C   0  0  0  0  0  0  0  0  0  0  0  0
  -15.2921  -10.4907   37.5930 N   0  0  0  0  0  0  0  0  0  0  0  0
  -17.5985   -8.6513   36.2337 H   0  0  0  0  0  0  0  0  0  0  0  0
  -16.5308   -8.2827   37.6256 H   0  0  0  0  0  0  0  0  0  0  0  0
  -17.9544   -9.3467   37.8470 H   0  0  0  0  0  0  0  0  0  0  0  0
  -17.3862  -11.0085   35.1359 H   0  0  0  0  0  0  0  0  0  0  0  0
  -14.8265  -14.6790   36.6899 H   0  0  0  0  0  0  0  0  0  0  0  0
  -13.5980  -14.0793   35.5398 H   0  0  0  0  0  0  0  0  0  0  0  0
  -14.7912  -16.2824   34.3200 H   0  0  0  0  0  0  0  0  0  0  0  0
  -15.4568  -18.6186   34.9716 H   0  0  0  0  0  0  0  0  0  0  0  0
  -15.3856  -20.9115   34.0682 H   0  0  0  0  0  0  0  0  0  0  0  0
  -13.2460  -22.0491   33.5902 H   0  0  0  0  0  0  0  0  0  0  0  0
   -8.9572  -19.7032   34.1727 H   0  0  0  0  0  0  0  0  0  0  0  0
  -10.5283  -17.6155   35.0336 H   0  0  0  0  0  0  0  0  0  0  0  0
  -14.0240  -12.1145   37.5780 H   0  0  0  0  0  0  0  0  0  0  0  0
  1  2  1  0
  2  3  1  0
  3  4  2  0
  4  5  1  0
  5  6  2  0
  5  7  1  0
  7  8  1  0
  8  9  1  0
  9 10  2  0
  9 11  1  0
 11 12  2  0
 12 13  1  0
 13 14  2  0
 14 15  1  0
 15 16  2  0
 16 17  1  0
 17 18  2  0
 18 19  1  0
  4 20  1  0
 20 21  2  0
 21  2  1  0
 19 11  1  0
 19 15  1  0
  1 22  1  0
  1 23  1  0
  1 24  1  0
  3 25  1  0
  7 26  1  0
  7 27  1  0
  8 28  1  0
 12 29  1  0
 13 30  1  0
 14 31  1  0
 17 32  1  0
 18 33  1  0
 20 34  1  0
M  END
>  <Energy>  (532) 
70.734513240222242

>  <compound_id>  (532) 
67928

>  <target_id>  (532) 
1

>  <reference_id>  (532) 
45

>  <inspiration_ids>  (532) 
[7, 45]

>  <energy_score>  (532) 
-1.6703506932144592

>  <distance_score>  (532) 
11.259654489232057

>  <path>  (532) 
/opt/xchem-fragalysis-2/maxwin/BulkDock/SCRATCH/511022/C67928-P45/C67928-P45.minimised.mol

>  <scratch_subdir>  (532) 
/opt/xchem-fragalysis-2/maxwin/BulkDock/SCRATCH/511022/C67928-P45

>  <fragmenstein_runtime>  (532) 
20.574689865112305

>  <fragmenstein_outcome>  (532) 
too moved

>  <fragmenstein_mode>  (532) 
expansion

>  <fragmenstein_error>  (532) 


$$$$
C67930-P7
     RDKit          3D

 39 42  0  0  0  0  0  0  0  0999 V2000
   -8.5511  -17.8377   27.6859 O   0  0  0  0  0  0  0  0  0  0  0  0
   -9.4007  -18.6350   27.3336 C   0  0  0  0  0  0  0  0  0  0  0  0
  -10.9594  -18.4041   26.3129 N   0  0  0  0  0  0  0  0  0  0  0  0
  -11.5004  -17.3303   25.8420 C   0  0  0  0  0  0  0  0  0  0  0  0
  -10.5874  -16.5928   25.2820 C   0  0  0  0  0  0  0  0  0  0  0  0
  -10.2118  -15.9835   26.4804 C   0  0  0  0  0  0  0  0  0  0  0  0
  -11.3307  -15.7500   27.1959 N   0  0  0  0  0  0  0  0  0  0  0  0
  -12.2169  -16.6627   26.7341 N   0  0  0  0  0  0  0  0  0  0  0  0
  -13.3842  -17.1187   27.4732 C   0  0  0  0  0  0  0  0  0  0  0  0
  -13.5765  -18.5209   28.0531 C   0  0  0  0  0  0  0  0  0  0  0  0
  -15.0011  -18.4287   28.6305 C   0  0  0  0  0  0  0  0  0  0  0  0
  -15.7400  -17.4636   27.6985 C   0  0  0  0  0  0  0  0  0  0  0  0
  -14.6873  -17.0811   26.6554 C   0  0  0  0  0  0  0  0  0  0  0  0
   -9.4976  -20.7122   27.5598 C   0  0  0  0  0  0  0  0  0  0  0  0
  -10.6927  -21.6104   27.8435 C   0  0  0  0  0  0  0  0  0  0  0  0
  -10.7335  -23.0618   27.8445 C   0  0  0  0  0  0  0  0  0  0  0  0
   -9.6013  -23.7606   27.7634 C   0  0  0  0  0  0  0  0  0  0  0  0
   -8.2605  -23.0560   27.7903 C   0  0  0  0  0  0  0  0  0  0  0  0
   -7.0707  -23.5031   28.2340 N   0  0  0  0  0  0  0  0  0  0  0  0
   -6.1389  -22.9179   27.5252 C   0  0  0  0  0  0  0  0  0  0  0  0
   -6.6668  -21.7209   27.5994 C   0  0  0  0  0  0  0  0  0  0  0  0
   -8.0483  -21.7465   27.5386 N   0  0  0  0  0  0  0  0  0  0  0  0
  -11.4818  -19.3001   26.2178 H   0  0  0  0  0  0  0  0  0  0  0  0
  -10.0714  -16.8329   24.3620 H   0  0  0  0  0  0  0  0  0  0  0  0
   -9.2525  -15.5165   26.7077 H   0  0  0  0  0  0  0  0  0  0  0  0
  -13.4126  -16.5295   28.3933 H   0  0  0  0  0  0  0  0  0  0  0  0
  -13.5224  -19.3048   27.2890 H   0  0  0  0  0  0  0  0  0  0  0  0
  -12.8720  -18.7509   28.8358 H   0  0  0  0  0  0  0  0  0  0  0  0
  -15.4778  -19.4132   28.6652 H   0  0  0  0  0  0  0  0  0  0  0  0
  -14.9820  -18.0286   29.6509 H   0  0  0  0  0  0  0  0  0  0  0  0
  -16.0941  -16.5930   28.2598 H   0  0  0  0  0  0  0  0  0  0  0  0
  -16.6080  -17.9372   27.2296 H   0  0  0  0  0  0  0  0  0  0  0  0
  -14.6548  -17.8558   25.8740 H   0  0  0  0  0  0  0  0  0  0  0  0
  -14.9103  -16.1688   26.1003 H   0  0  0  0  0  0  0  0  0  0  0  0
  -11.7308  -21.2727   27.9089 H   0  0  0  0  0  0  0  0  0  0  0  0
  -11.6934  -23.5662   27.9006 H   0  0  0  0  0  0  0  0  0  0  0  0
   -9.6529  -24.8438   27.8513 H   0  0  0  0  0  0  0  0  0  0  0  0
   -5.1127  -23.2102   27.4250 H   0  0  0  0  0  0  0  0  0  0  0  0
   -6.1221  -20.8145   27.4185 H   0  0  0  0  0  0  0  0  0  0  0  0
  1  2  2  0
  2  3  1  0
  3  4  1  0
  4  5  2  0
  5  6  1  0
  6  7  2  0
  7  8  1  0
  8  9  1  0
  9 10  1  0
 10 11  1  0
 11 12  1  0
 12 13  1  0
  2 14  1  0
 14 15  2  0
 15 16  1  0
 16 17  2  0
 17 18  1  0
 18 19  2  0
 19 20  1  0
 20 21  2  0
 21 22  1  0
  8  4  1  0
 13  9  1  0
 22 14  1  0
 22 18  1  0
  3 23  1  0
  5 24  1  0
  6 25  1  0
  9 26  1  0
 10 27  1  0
 10 28  1  0
 11 29  1  0
 11 30  1  0
 12 31  1  0
 12 32  1  0
 13 33  1  0
 13 34  1  0
 15 35  1  0
 16 36  1  0
 17 37  1  0
 20 38  1  0
 21 39  1  0
M  END
>  <Energy>  (533) 
408.29572877055921

>  <compound_id>  (533) 
67930

>  <target_id>  (533) 
1

>  <reference_id>  (533) 
7

>  <inspiration_ids>  (533) 
[7, 45]

>  <energy_score>  (533) 
310.5981883694848

>  <distance_score>  (533) 
13.712449921195535

>  <path>  (533) 
/opt/xchem-fragalysis-2/maxwin/BulkDock/SCRATCH/511022/C67930-P7/C67930-P7.minimised.mol

>  <scratch_subdir>  (533) 
/opt/xchem-fragalysis-2/maxwin/BulkDock/SCRATCH/511022/C67930-P7

>  <fragmenstein_runtime>  (533) 
21.044915199279785

>  <fragmenstein_outcome>  (533) 
too moved

>  <fragmenstein_mode>  (533) 
expansion

>  <fragmenstein_error>  (533) 


$$$$
C67930-P45
     RDKit          3D

 39 42  0  0  0  0  0  0  0  0999 V2000
   -7.3263  -14.3289   31.6823 O   0  0  0  0  0  0  0  0  0  0  0  0
   -8.2419  -14.4475   32.4750 C   0  0  0  0  0  0  0  0  0  0  0  0
   -9.4440  -13.2508   32.8712 N   0  0  0  0  0  0  0  0  0  0  0  0
   -9.7629  -11.5499   32.1440 C   0  0  0  0  0  0  0  0  0  0  0  0
   -9.7075  -10.6343   30.9239 C   0  0  0  0  0  0  0  0  0  0  0  0
   -8.4092  -10.5619   31.0498 C   0  0  0  0  0  0  0  0  0  0  0  0
   -8.2855  -11.0249   32.3623 N   0  0  0  0  0  0  0  0  0  0  0  0
   -9.4011  -10.3331   32.5664 N   0  0  0  0  0  0  0  0  0  0  0  0
  -10.1330   -9.0647   33.1328 C   0  0  0  0  0  0  0  0  0  0  0  0
   -9.7933   -7.8262   33.7732 C   0  0  0  0  0  0  0  0  0  0  0  0
  -11.5290   -7.5289   34.6877 C   0  0  0  0  0  0  0  0  0  0  0  0
  -11.1785   -6.3965   33.9533 C   0  0  0  0  0  0  0  0  0  0  0  0
  -10.5466   -7.3287   32.3583 C   0  0  0  0  0  0  0  0  0  0  0  0
   -8.1619  -16.0476   33.3500 C   0  0  0  0  0  0  0  0  0  0  0  0
   -6.9804  -16.7371   33.3048 C   0  0  0  0  0  0  0  0  0  0  0  0
   -6.7994  -18.0556   33.8951 C   0  0  0  0  0  0  0  0  0  0  0  0
   -7.7554  -18.6607   34.6012 C   0  0  0  0  0  0  0  0  0  0  0  0
   -9.0122  -18.0369   34.6724 C   0  0  0  0  0  0  0  0  0  0  0  0
  -10.1303  -18.5397   35.1473 N   0  0  0  0  0  0  0  0  0  0  0  0
  -11.0650  -17.5986   34.8829 C   0  0  0  0  0  0  0  0  0  0  0  0
  -10.5005  -16.5014   34.2775 C   0  0  0  0  0  0  0  0  0  0  0  0
   -9.1778  -16.7594   34.0788 N   0  0  0  0  0  0  0  0  0  0  0  0
  -10.0948  -13.6417   33.5241 H   0  0  0  0  0  0  0  0  0  0  0  0
  -10.4021  -10.2007   30.1909 H   0  0  0  0  0  0  0  0  0  0  0  0
   -7.5988  -10.1956   30.3654 H   0  0  0  0  0  0  0  0  0  0  0  0
  -10.9615   -9.5428   33.6310 H   0  0  0  0  0  0  0  0  0  0  0  0
   -8.8782   -7.4936   33.1968 H   0  0  0  0  0  0  0  0  0  0  0  0
   -9.2653   -6.8268   33.9793 H   0  0  0  0  0  0  0  0  0  0  0  0
  -11.8990   -6.9386   35.4957 H   0  0  0  0  0  0  0  0  0  0  0  0
  -11.5073   -8.5586   34.9722 H   0  0  0  0  0  0  0  0  0  0  0  0
  -10.5554   -5.8475   34.6680 H   0  0  0  0  0  0  0  0  0  0  0  0
  -12.0784   -5.6983   34.1665 H   0  0  0  0  0  0  0  0  0  0  0  0
  -11.2198   -7.4496   31.4985 H   0  0  0  0  0  0  0  0  0  0  0  0
   -9.6354   -7.0105   31.8891 H   0  0  0  0  0  0  0  0  0  0  0  0
   -6.1150  -16.4030   32.7543 H   0  0  0  0  0  0  0  0  0  0  0  0
   -5.8923  -18.6049   33.6689 H   0  0  0  0  0  0  0  0  0  0  0  0
   -7.6359  -19.6627   34.9929 H   0  0  0  0  0  0  0  0  0  0  0  0
  -12.1090  -17.7480   35.1254 H   0  0  0  0  0  0  0  0  0  0  0  0
  -10.9563  -15.6124   33.8822 H   0  0  0  0  0  0  0  0  0  0  0  0
  1  2  2  0
  2  3  1  0
  3  4  1  0
  4  5  2  0
  5  6  1  0
  6  7  2  0
  7  8  1  0
  8  9  1  0
  9 10  1  0
 10 11  1  0
 11 12  1  0
 12 13  1  0
  2 14  1  0
 14 15  2  0
 15 16  1  0
 16 17  2  0
 17 18  1  0
 18 19  2  0
 19 20  1  0
 20 21  2  0
 21 22  1  0
  8  4  1  0
 13  9  1  0
 22 14  1  0
 22 18  1  0
  3 23  1  0
  5 24  1  0
  6 25  1  0
  9 26  1  0
 10 27  1  0
 10 28  1  0
 11 29  1  0
 11 30  1  0
 12 31  1  0
 12 32  1  0
 13 33  1  0
 13 34  1  0
 15 35  1  0
 16 36  1  0
 17 37  1  0
 20 38  1  0
 21 39  1  0
M  END
>  <Energy>  (534) 
908.25323235457745

>  <compound_id>  (534) 
67930

>  <target_id>  (534) 
1

>  <reference_id>  (534) 
45

>  <inspiration_ids>  (534) 
[7, 45]

>  <energy_score>  (534) 
810.5556919534886

>  <distance_score>  (534) 
11.154852402764835

>  <path>  (534) 
/opt/xchem-fragalysis-2/maxwin/BulkDock/SCRATCH/511022/C67930-P45/C67930-P45.minimised.mol

>  <scratch_subdir>  (534) 
/opt/xchem-fragalysis-2/maxwin/BulkDock/SCRATCH/511022/C67930-P45

>  <fragmenstein_runtime>  (534) 
19.407084226608276

>  <fragmenstein_outcome>  (534) 
too moved

>  <fragmenstein_mode>  (534) 
expansion

>  <fragmenstein_error>  (534) 


$$$$
C67931-P7
     RDKit          3D

 39 42  0  0  0  0  0  0  0  0999 V2000
   -5.1216  -15.6294   29.9088 O   0  0  0  0  0  0  0  0  0  0  0  0
   -6.2937  -15.4843   29.8237 C   0  0  0  0  0  0  0  0  0  0  0  0
   -7.6026  -14.4174   30.9684 N   0  0  0  0  0  0  0  0  0  0  0  0
   -7.4521  -13.4643   32.5480 C   0  0  0  0  0  0  0  0  0  0  0  0
   -9.1548  -12.9799   32.9715 C   0  0  0  0  0  0  0  0  0  0  0  0
   -9.2908  -11.3111   32.1707 C   0  0  0  0  0  0  0  0  0  0  0  0
   -8.0731  -11.3507   32.4120 N   0  0  0  0  0  0  0  0  0  0  0  0
   -8.6059  -12.1790   33.3018 N   0  0  0  0  0  0  0  0  0  0  0  0
   -8.8982  -10.9854   34.7124 C   0  0  0  0  0  0  0  0  0  0  0  0
  -10.0457   -9.5059   33.7796 C   0  0  0  0  0  0  0  0  0  0  0  0
  -11.7498   -9.8613   34.6070 C   0  0  0  0  0  0  0  0  0  0  0  0
  -11.8035  -10.7191   35.7887 C   0  0  0  0  0  0  0  0  0  0  0  0
  -10.3476  -10.7050   36.1076 C   0  0  0  0  0  0  0  0  0  0  0  0
   -7.2259  -16.6885   28.3033 C   0  0  0  0  0  0  0  0  0  0  0  0
   -6.2192  -16.4570   27.4766 C   0  0  0  0  0  0  0  0  0  0  0  0
   -5.4127  -17.6320   27.4718 C   0  0  0  0  0  0  0  0  0  0  0  0
   -5.6502  -19.1958   26.9972 C   0  0  0  0  0  0  0  0  0  0  0  0
   -6.8785  -19.7897   27.1192 N   0  0  0  0  0  0  0  0  0  0  0  0
   -6.4843  -21.5223   27.6022 C   0  0  0  0  0  0  0  0  0  0  0  0
   -7.7476  -21.7836   27.5847 C   0  0  0  0  0  0  0  0  0  0  0  0
   -7.6858  -20.1796   27.7631 N   0  0  0  0  0  0  0  0  0  0  0  0
   -8.0316  -18.5432   28.1082 C   0  0  0  0  0  0  0  0  0  0  0  0
   -8.5560  -14.4206   30.5905 H   0  0  0  0  0  0  0  0  0  0  0  0
   -9.7081  -13.9115   32.8016 H   0  0  0  0  0  0  0  0  0  0  0  0
   -9.7467  -10.7995   31.3565 H   0  0  0  0  0  0  0  0  0  0  0  0
   -9.2600  -11.8110   35.1034 H   0  0  0  0  0  0  0  0  0  0  0  0
   -9.6323   -8.4843   33.4389 H   0  0  0  0  0  0  0  0  0  0  0  0
  -10.4968   -9.4821   32.8660 H   0  0  0  0  0  0  0  0  0  0  0  0
  -12.3082   -9.0100   34.9438 H   0  0  0  0  0  0  0  0  0  0  0  0
  -12.4548  -10.3396   33.9206 H   0  0  0  0  0  0  0  0  0  0  0  0
  -12.4493  -10.3352   36.5954 H   0  0  0  0  0  0  0  0  0  0  0  0
  -12.3514  -11.6347   35.5964 H   0  0  0  0  0  0  0  0  0  0  0  0
   -9.6317  -10.6799   37.0103 H   0  0  0  0  0  0  0  0  0  0  0  0
  -10.6684  -11.1414   37.1233 H   0  0  0  0  0  0  0  0  0  0  0  0
   -6.3700  -15.9132   26.5421 H   0  0  0  0  0  0  0  0  0  0  0  0
   -5.4714  -17.5232   28.5635 H   0  0  0  0  0  0  0  0  0  0  0  0
   -5.3843  -19.8229   26.0964 H   0  0  0  0  0  0  0  0  0  0  0  0
   -5.5285  -21.9402   27.3409 H   0  0  0  0  0  0  0  0  0  0  0  0
   -8.4215  -22.5925   27.7649 H   0  0  0  0  0  0  0  0  0  0  0  0
  1  2  2  0
  2  3  1  0
  3  4  1  0
  4  5  2  0
  5  6  1  0
  6  7  2  0
  7  8  1  0
  8  9  1  0
  9 10  1  0
 10 11  1  0
 11 12  1  0
 12 13  1  0
  2 14  1  0
 14 15  2  0
 15 16  1  0
 16 17  2  0
 17 18  1  0
 18 19  1  0
 19 20  2  0
 20 21  1  0
 21 22  2  0
  8  4  1  0
 13  9  1  0
 22 14  1  0
 22 18  1  0
  3 23  1  0
  5 24  1  0
  6 25  1  0
  9 26  1  0
 10 27  1  0
 10 28  1  0
 11 29  1  0
 11 30  1  0
 12 31  1  0
 12 32  1  0
 13 33  1  0
 13 34  1  0
 15 35  1  0
 16 36  1  0
 17 37  1  0
 19 38  1  0
 20 39  1  0
M  END
>  <Energy>  (535) 
2051.6273372494302

>  <compound_id>  (535) 
67931

>  <target_id>  (535) 
1

>  <reference_id>  (535) 
7

>  <inspiration_ids>  (535) 
[7, 45]

>  <energy_score>  (535) 
1947.4146599438536

>  <distance_score>  (535) 
10.214027392047319

>  <path>  (535) 
/opt/xchem-fragalysis-2/maxwin/BulkDock/SCRATCH/511022/C67931-P7/C67931-P7.minimised.mol

>  <scratch_subdir>  (535) 
/opt/xchem-fragalysis-2/maxwin/BulkDock/SCRATCH/511022/C67931-P7

>  <fragmenstein_runtime>  (535) 
17.450433492660522

>  <fragmenstein_outcome>  (535) 
too moved

>  <fragmenstein_mode>  (535) 
expansion

>  <fragmenstein_error>  (535) 


$$$$
C67931-P45
     RDKit          3D

 39 42  0  0  0  0  0  0  0  0999 V2000
   -6.9545  -14.0759   27.8623 O   0  0  0  0  0  0  0  0  0  0  0  0
   -8.0660  -14.4888   28.1505 C   0  0  0  0  0  0  0  0  0  0  0  0
   -9.3464  -13.2087   29.0543 N   0  0  0  0  0  0  0  0  0  0  0  0
   -9.2709  -11.0582   29.8847 C   0  0  0  0  0  0  0  0  0  0  0  0
  -10.4473   -9.8660   29.6276 C   0  0  0  0  0  0  0  0  0  0  0  0
  -10.0688   -8.7269   28.8952 C   0  0  0  0  0  0  0  0  0  0  0  0
   -8.7890   -8.6663   28.7025 N   0  0  0  0  0  0  0  0  0  0  0  0
   -8.1576   -9.6495   29.4812 N   0  0  0  0  0  0  0  0  0  0  0  0
   -6.5940   -9.4474   29.3911 C   0  0  0  0  0  0  0  0  0  0  0  0
   -6.2530   -8.6043   28.0990 C   0  0  0  0  0  0  0  0  0  0  0  0
   -6.1432   -7.1427   28.5745 C   0  0  0  0  0  0  0  0  0  0  0  0
   -5.5916   -7.2219   29.9891 C   0  0  0  0  0  0  0  0  0  0  0  0
   -5.5018   -8.7116   30.2415 C   0  0  0  0  0  0  0  0  0  0  0  0
   -8.2735  -16.6932   27.6772 C   0  0  0  0  0  0  0  0  0  0  0  0
   -9.1475  -18.3088   27.3097 C   0  0  0  0  0  0  0  0  0  0  0  0
   -9.6860  -20.4322   27.1943 C   0  0  0  0  0  0  0  0  0  0  0  0
   -9.3849  -21.3266   28.0113 C   0  0  0  0  0  0  0  0  0  0  0  0
   -7.8034  -20.3153   27.9383 N   0  0  0  0  0  0  0  0  0  0  0  0
   -6.2684  -21.0631   27.4735 C   0  0  0  0  0  0  0  0  0  0  0  0
   -7.3774  -21.3949   28.0539 C   0  0  0  0  0  0  0  0  0  0  0  0
   -8.2953  -19.6911   28.6349 N   0  0  0  0  0  0  0  0  0  0  0  0
   -7.8660  -18.3962   28.4100 C   0  0  0  0  0  0  0  0  0  0  0  0
  -10.2856  -13.6906   29.1550 H   0  0  0  0  0  0  0  0  0  0  0  0
  -11.4820  -10.1388   29.5320 H   0  0  0  0  0  0  0  0  0  0  0  0
  -10.7131   -7.9847   28.4458 H   0  0  0  0  0  0  0  0  0  0  0  0
   -6.1533  -10.4293   29.4894 H   0  0  0  0  0  0  0  0  0  0  0  0
   -6.9391   -8.6966   27.2514 H   0  0  0  0  0  0  0  0  0  0  0  0
   -5.2760   -8.9258   27.7089 H   0  0  0  0  0  0  0  0  0  0  0  0
   -5.4824   -6.5696   27.9157 H   0  0  0  0  0  0  0  0  0  0  0  0
   -7.1165   -6.6449   28.5649 H   0  0  0  0  0  0  0  0  0  0  0  0
   -4.6029   -6.7548   30.0534 H   0  0  0  0  0  0  0  0  0  0  0  0
   -6.2303   -6.7137   30.7070 H   0  0  0  0  0  0  0  0  0  0  0  0
   -4.5314   -9.0158   29.8038 H   0  0  0  0  0  0  0  0  0  0  0  0
   -5.3153   -9.0378   31.2547 H   0  0  0  0  0  0  0  0  0  0  0  0
   -9.5771  -18.4763   28.1995 H   0  0  0  0  0  0  0  0  0  0  0  0
  -10.6409  -20.8382   26.6390 H   0  0  0  0  0  0  0  0  0  0  0  0
   -9.5536  -22.3927   28.1598 H   0  0  0  0  0  0  0  0  0  0  0  0
   -5.7801  -20.2190   26.9976 H   0  0  0  0  0  0  0  0  0  0  0  0
   -7.6230  -22.4169   28.4487 H   0  0  0  0  0  0  0  0  0  0  0  0
  1  2  2  0
  2  3  1  0
  3  4  1  0
  4  5  2  0
  5  6  1  0
  6  7  2  0
  7  8  1  0
  8  9  1  0
  9 10  1  0
 10 11  1  0
 11 12  1  0
 12 13  1  0
  2 14  1  0
 14 15  2  0
 15 16  1  0
 16 17  2  0
 17 18  1  0
 18 19  1  0
 19 20  2  0
 20 21  1  0
 21 22  2  0
  8  4  1  0
 13  9  1  0
 22 14  1  0
 22 18  1  0
  3 23  1  0
  5 24  1  0
  6 25  1  0
  9 26  1  0
 10 27  1  0
 10 28  1  0
 11 29  1  0
 11 30  1  0
 12 31  1  0
 12 32  1  0
 13 33  1  0
 13 34  1  0
 15 35  1  0
 16 36  1  0
 17 37  1  0
 19 38  1  0
 20 39  1  0
M  END
>  <Energy>  (536) 
2575.5415277362649

>  <compound_id>  (536) 
67931

>  <target_id>  (536) 
1

>  <reference_id>  (536) 
45

>  <inspiration_ids>  (536) 
[7, 45]

>  <energy_score>  (536) 
2471.3288504307134

>  <distance_score>  (536) 
10.393364355321975

>  <path>  (536) 
/opt/xchem-fragalysis-2/maxwin/BulkDock/SCRATCH/511022/C67931-P45/C67931-P45.minimised.mol

>  <scratch_subdir>  (536) 
/opt/xchem-fragalysis-2/maxwin/BulkDock/SCRATCH/511022/C67931-P45

>  <fragmenstein_runtime>  (536) 
20.28985834121704

>  <fragmenstein_outcome>  (536) 
too moved

>  <fragmenstein_mode>  (536) 
expansion

>  <fragmenstein_error>  (536) 


$$$$
C67932-P7
     RDKit          3D

 41 44  0  0  0  0  0  0  0  0999 V2000
  -12.7822  -20.8876   34.7409 O   0  0  0  0  0  0  0  0  0  0  0  0
  -12.2936  -19.8526   34.2961 C   0  0  0  0  0  0  0  0  0  0  0  0
  -11.3454  -19.9224   33.1808 O   0  0  0  0  0  0  0  0  0  0  0  0
  -10.5826  -21.2470   32.3239 C   0  0  0  0  0  0  0  0  0  0  0  0
   -8.7431  -21.4203   32.5772 C   0  0  0  0  0  0  0  0  0  0  0  0
   -8.0818  -21.8935   33.6589 C   0  0  0  0  0  0  0  0  0  0  0  0
   -8.3390  -23.2735   34.0032 C   0  0  0  0  0  0  0  0  0  0  0  0
   -8.8492  -24.0502   33.0653 C   0  0  0  0  0  0  0  0  0  0  0  0
   -8.7893  -23.5140   31.7477 C   0  0  0  0  0  0  0  0  0  0  0  0
   -9.1275  -24.4209   30.6010 N   0  0  0  0  0  0  0  0  0  0  0  0
   -8.4914  -24.1774   28.9896 C   0  0  0  0  0  0  0  0  0  0  0  0
   -7.5152  -22.5939   29.0821 C   0  0  0  0  0  0  0  0  0  0  0  0
   -7.6865  -21.8416   31.2475 N   0  0  0  0  0  0  0  0  0  0  0  0
  -12.7600  -18.4493   34.8288 C   0  0  0  0  0  0  0  0  0  0  0  0
  -13.2717  -17.3534   34.1277 C   0  0  0  0  0  0  0  0  0  0  0  0
  -13.8800  -16.4265   34.9333 C   0  0  0  0  0  0  0  0  0  0  0  0
  -13.6498  -16.7454   36.1810 N   0  0  0  0  0  0  0  0  0  0  0  0
  -13.0100  -17.9580   36.1355 N   0  0  0  0  0  0  0  0  0  0  0  0
  -12.7132  -18.5056   37.4524 C   0  0  0  0  0  0  0  0  0  0  0  0
  -13.9683  -18.7068   38.3203 C   0  0  0  0  0  0  0  0  0  0  0  0
  -14.1923  -17.3761   39.0498 C   0  0  0  0  0  0  0  0  0  0  0  0
  -12.7993  -16.8117   39.2828 C   0  0  0  0  0  0  0  0  0  0  0  0
  -11.8599  -17.5499   38.3197 C   0  0  0  0  0  0  0  0  0  0  0  0
  -11.1123  -22.1275   32.7041 H   0  0  0  0  0  0  0  0  0  0  0  0
  -10.8272  -21.0347   31.2854 H   0  0  0  0  0  0  0  0  0  0  0  0
   -7.1848  -21.3946   33.9956 H   0  0  0  0  0  0  0  0  0  0  0  0
   -8.0749  -23.6623   34.9855 H   0  0  0  0  0  0  0  0  0  0  0  0
   -9.0833  -25.0974   33.2112 H   0  0  0  0  0  0  0  0  0  0  0  0
   -9.1839  -24.5426   28.2253 H   0  0  0  0  0  0  0  0  0  0  0  0
   -7.2239  -21.9947   28.1614 H   0  0  0  0  0  0  0  0  0  0  0  0
  -13.3059  -17.1863   33.0855 H   0  0  0  0  0  0  0  0  0  0  0  0
  -14.4343  -15.5372   34.6561 H   0  0  0  0  0  0  0  0  0  0  0  0
  -12.2219  -19.4647   37.2835 H   0  0  0  0  0  0  0  0  0  0  0  0
  -13.7698  -19.4891   39.0638 H   0  0  0  0  0  0  0  0  0  0  0  0
  -14.8495  -19.0075   37.7443 H   0  0  0  0  0  0  0  0  0  0  0  0
  -14.7330  -17.5230   39.9904 H   0  0  0  0  0  0  0  0  0  0  0  0
  -14.7927  -16.6905   38.4436 H   0  0  0  0  0  0  0  0  0  0  0  0
  -12.7769  -15.7306   39.1484 H   0  0  0  0  0  0  0  0  0  0  0  0
  -12.4842  -17.0024   40.3158 H   0  0  0  0  0  0  0  0  0  0  0  0
  -11.1731  -18.1461   38.9319 H   0  0  0  0  0  0  0  0  0  0  0  0
  -11.2448  -16.8656   37.7312 H   0  0  0  0  0  0  0  0  0  0  0  0
  1  2  2  0
  2  3  1  0
  3  4  1  0
  4  5  1  0
  5  6  2  0
  6  7  1  0
  7  8  2  0
  8  9  1  0
  9 10  2  0
 10 11  1  0
 11 12  2  0
 12 13  1  0
  2 14  1  0
 14 15  2  0
 15 16  1  0
 16 17  2  0
 17 18  1  0
 18 19  1  0
 19 20  1  0
 20 21  1  0
 21 22  1  0
 22 23  1  0
 13  5  1  0
 18 14  1  0
 23 19  1  0
 13  9  1  0
  4 24  1  0
  4 25  1  0
  6 26  1  0
  7 27  1  0
  8 28  1  0
 11 29  1  0
 12 30  1  0
 15 31  1  0
 16 32  1  0
 19 33  1  0
 20 34  1  0
 20 35  1  0
 21 36  1  0
 21 37  1  0
 22 38  1  0
 22 39  1  0
 23 40  1  0
 23 41  1  0
M  END
>  <Energy>  (537) 
1031.1115026366604

>  <compound_id>  (537) 
67932

>  <target_id>  (537) 
1

>  <reference_id>  (537) 
7

>  <inspiration_ids>  (537) 
[7, 45]

>  <energy_score>  (537) 
981.2544047901777

>  <distance_score>  (537) 
12.327661442597254

>  <path>  (537) 
/opt/xchem-fragalysis-2/maxwin/BulkDock/SCRATCH/511022/C67932-P7/C67932-P7.minimised.mol

>  <scratch_subdir>  (537) 
/opt/xchem-fragalysis-2/maxwin/BulkDock/SCRATCH/511022/C67932-P7

>  <fragmenstein_runtime>  (537) 
23.85926604270935

>  <fragmenstein_outcome>  (537) 
too moved

>  <fragmenstein_mode>  (537) 
expansion

>  <fragmenstein_error>  (537) 


$$$$
C67932-P45
     RDKit          3D

 41 44  0  0  0  0  0  0  0  0999 V2000
  -15.5148  -16.8912   34.3598 O   0  0  0  0  0  0  0  0  0  0  0  0
  -14.9427  -16.8437   35.4428 C   0  0  0  0  0  0  0  0  0  0  0  0
  -14.1995  -17.9134   35.9280 O   0  0  0  0  0  0  0  0  0  0  0  0
  -14.4783  -19.2552   35.3818 C   0  0  0  0  0  0  0  0  0  0  0  0
  -13.3605  -19.9601   34.5895 C   0  0  0  0  0  0  0  0  0  0  0  0
  -12.1267  -19.4408   34.4072 C   0  0  0  0  0  0  0  0  0  0  0  0
  -11.2084  -20.0659   33.4647 C   0  0  0  0  0  0  0  0  0  0  0  0
  -11.5254  -21.1797   32.7861 C   0  0  0  0  0  0  0  0  0  0  0  0
  -12.7513  -21.8176   33.0270 C   0  0  0  0  0  0  0  0  0  0  0  0
  -13.2383  -22.9126   32.4915 N   0  0  0  0  0  0  0  0  0  0  0  0
  -14.4796  -23.0352   33.0406 C   0  0  0  0  0  0  0  0  0  0  0  0
  -14.7508  -21.9926   33.9018 C   0  0  0  0  0  0  0  0  0  0  0  0
  -13.6346  -21.1910   33.9110 N   0  0  0  0  0  0  0  0  0  0  0  0
  -15.0450  -15.7316   36.3974 C   0  0  0  0  0  0  0  0  0  0  0  0
  -14.7955  -15.7231   37.7660 C   0  0  0  0  0  0  0  0  0  0  0  0
  -15.2812  -14.4977   38.2602 C   0  0  0  0  0  0  0  0  0  0  0  0
  -15.7873  -13.7400   37.2965 N   0  0  0  0  0  0  0  0  0  0  0  0
  -15.4901  -14.4207   36.1574 N   0  0  0  0  0  0  0  0  0  0  0  0
  -15.6891  -13.7356   34.8822 C   0  0  0  0  0  0  0  0  0  0  0  0
  -17.1681  -13.6562   34.4974 C   0  0  0  0  0  0  0  0  0  0  0  0
  -17.6697  -12.3768   35.1653 C   0  0  0  0  0  0  0  0  0  0  0  0
  -16.4958  -11.4116   35.1045 C   0  0  0  0  0  0  0  0  0  0  0  0
  -15.2455  -12.2596   34.8592 C   0  0  0  0  0  0  0  0  0  0  0  0
  -14.7097  -19.8748   36.2561 H   0  0  0  0  0  0  0  0  0  0  0  0
  -15.3863  -19.2181   34.7690 H   0  0  0  0  0  0  0  0  0  0  0  0
  -11.8272  -18.4953   34.8517 H   0  0  0  0  0  0  0  0  0  0  0  0
  -10.2643  -19.5576   33.2924 H   0  0  0  0  0  0  0  0  0  0  0  0
  -10.9010  -21.6127   32.0312 H   0  0  0  0  0  0  0  0  0  0  0  0
  -15.1260  -23.8675   32.7883 H   0  0  0  0  0  0  0  0  0  0  0  0
  -15.6243  -21.7734   34.4976 H   0  0  0  0  0  0  0  0  0  0  0  0
  -14.3942  -16.5425   38.3449 H   0  0  0  0  0  0  0  0  0  0  0  0
  -15.3132  -14.1425   39.2808 H   0  0  0  0  0  0  0  0  0  0  0  0
  -15.1124  -14.3054   34.1505 H   0  0  0  0  0  0  0  0  0  0  0  0
  -17.7484  -14.5316   34.8060 H   0  0  0  0  0  0  0  0  0  0  0  0
  -17.2600  -13.5549   33.4090 H   0  0  0  0  0  0  0  0  0  0  0  0
  -18.5558  -11.9769   34.6625 H   0  0  0  0  0  0  0  0  0  0  0  0
  -17.9494  -12.5715   36.2064 H   0  0  0  0  0  0  0  0  0  0  0  0
  -16.4174  -10.8248   36.0250 H   0  0  0  0  0  0  0  0  0  0  0  0
  -16.6391  -10.7165   34.2712 H   0  0  0  0  0  0  0  0  0  0  0  0
  -14.8580  -12.0231   33.8611 H   0  0  0  0  0  0  0  0  0  0  0  0
  -14.4557  -12.0241   35.5746 H   0  0  0  0  0  0  0  0  0  0  0  0
  1  2  2  0
  2  3  1  0
  3  4  1  0
  4  5  1  0
  5  6  2  0
  6  7  1  0
  7  8  2  0
  8  9  1  0
  9 10  2  0
 10 11  1  0
 11 12  2  0
 12 13  1  0
  2 14  1  0
 14 15  2  0
 15 16  1  0
 16 17  2  0
 17 18  1  0
 18 19  1  0
 19 20  1  0
 20 21  1  0
 21 22  1  0
 22 23  1  0
 13  5  1  0
 18 14  1  0
 23 19  1  0
 13  9  1  0
  4 24  1  0
  4 25  1  0
  6 26  1  0
  7 27  1  0
  8 28  1  0
 11 29  1  0
 12 30  1  0
 15 31  1  0
 16 32  1  0
 19 33  1  0
 20 34  1  0
 20 35  1  0
 21 36  1  0
 21 37  1  0
 22 38  1  0
 22 39  1  0
 23 40  1  0
 23 41  1  0
M  END
>  <Energy>  (538) 
20.948026639332557

>  <compound_id>  (538) 
67932

>  <target_id>  (538) 
1

>  <reference_id>  (538) 
45

>  <inspiration_ids>  (538) 
[7, 45]

>  <energy_score>  (538) 
-28.909071207157353

>  <distance_score>  (538) 
12.151166570144683

>  <path>  (538) 
/opt/xchem-fragalysis-2/maxwin/BulkDock/SCRATCH/511022/C67932-P45/C67932-P45.minimised.mol

>  <scratch_subdir>  (538) 
/opt/xchem-fragalysis-2/maxwin/BulkDock/SCRATCH/511022/C67932-P45

>  <fragmenstein_runtime>  (538) 
21.697413682937622

>  <fragmenstein_outcome>  (538) 
too moved

>  <fragmenstein_mode>  (538) 
expansion

>  <fragmenstein_error>  (538) 


$$$$
C67933-P7
     RDKit          3D

 38 41  0  0  0  0  0  0  0  0999 V2000
   -8.1790  -11.4345   32.4068 O   0  0  0  0  0  0  0  0  0  0  0  0
   -9.3217  -11.8015   32.6202 C   0  0  0  0  0  0  0  0  0  0  0  0
   -9.3187  -13.9651   32.4615 O   0  0  0  0  0  0  0  0  0  0  0  0
   -8.6780  -16.1001   32.0753 C   0  0  0  0  0  0  0  0  0  0  0  0
   -8.0276  -17.9615   30.6195 C   0  0  0  0  0  0  0  0  0  0  0  0
   -7.9870  -18.2400   28.7816 C   0  0  0  0  0  0  0  0  0  0  0  0
   -7.3850  -20.2781   27.5446 S   0  0  0  0  0  0  0  0  0  0  0  0
   -9.3840  -20.4413   27.7055 C   0  0  0  0  0  0  0  0  0  0  0  0
  -10.0812  -21.6034   27.9546 N   0  0  0  0  0  0  0  0  0  0  0  0
  -10.7756  -21.4905   28.9965 C   0  0  0  0  0  0  0  0  0  0  0  0
  -10.0080  -20.5273   29.5913 C   0  0  0  0  0  0  0  0  0  0  0  0
   -8.5401  -19.2251   28.9572 N   0  0  0  0  0  0  0  0  0  0  0  0
  -10.5388   -9.9270   33.0693 C   0  0  0  0  0  0  0  0  0  0  0  0
  -12.2063  -10.2946   33.8743 C   0  0  0  0  0  0  0  0  0  0  0  0
  -12.4629  -10.6701   35.2163 C   0  0  0  0  0  0  0  0  0  0  0  0
  -11.3161  -10.2259   35.5905 N   0  0  0  0  0  0  0  0  0  0  0  0
  -11.4519   -9.0459   34.5374 N   0  0  0  0  0  0  0  0  0  0  0  0
  -11.2059   -7.0336   34.9297 C   0  0  0  0  0  0  0  0  0  0  0  0
  -11.9952   -5.3322   35.6126 C   0  0  0  0  0  0  0  0  0  0  0  0
  -11.9086   -4.0802   36.4706 C   0  0  0  0  0  0  0  0  0  0  0  0
  -10.5131   -4.1830   36.5962 C   0  0  0  0  0  0  0  0  0  0  0  0
  -10.1101   -5.6528   35.8465 C   0  0  0  0  0  0  0  0  0  0  0  0
   -9.4583  -16.3753   32.8343 H   0  0  0  0  0  0  0  0  0  0  0  0
   -7.8801  -16.0471   32.8883 H   0  0  0  0  0  0  0  0  0  0  0  0
   -7.9181  -17.3089   28.1487 H   0  0  0  0  0  0  0  0  0  0  0  0
  -11.5469  -22.1512   29.3633 H   0  0  0  0  0  0  0  0  0  0  0  0
  -10.2644  -20.4668   30.6898 H   0  0  0  0  0  0  0  0  0  0  0  0
  -13.1501  -10.4065   33.3350 H   0  0  0  0  0  0  0  0  0  0  0  0
  -13.2484  -11.1109   35.8082 H   0  0  0  0  0  0  0  0  0  0  0  0
  -10.5839   -6.9341   34.0231 H   0  0  0  0  0  0  0  0  0  0  0  0
  -13.0411   -5.3749   35.9918 H   0  0  0  0  0  0  0  0  0  0  0  0
  -11.6946   -4.6817   34.8052 H   0  0  0  0  0  0  0  0  0  0  0  0
  -12.4603   -4.0366   37.4155 H   0  0  0  0  0  0  0  0  0  0  0  0
  -12.2152   -3.1616   35.9472 H   0  0  0  0  0  0  0  0  0  0  0  0
  -10.0385   -3.2847   36.1847 H   0  0  0  0  0  0  0  0  0  0  0  0
  -10.4019   -4.1495   37.6883 H   0  0  0  0  0  0  0  0  0  0  0  0
   -9.0654   -5.6547   35.4589 H   0  0  0  0  0  0  0  0  0  0  0  0
   -9.7909   -6.0864   36.7292 H   0  0  0  0  0  0  0  0  0  0  0  0
  1  2  2  0
  2  3  1  0
  3  4  1  0
  4  5  1  0
  5  6  2  0
  6  7  1  0
  7  8  1  0
  8  9  2  0
  9 10  1  0
 10 11  2  0
 11 12  1  0
  2 13  1  0
 13 14  2  0
 14 15  1  0
 15 16  2  0
 16 17  1  0
 17 18  1  0
 18 19  1  0
 19 20  1  0
 20 21  1  0
 21 22  1  0
 12  5  1  0
 17 13  1  0
 22 18  1  0
 12  8  1  0
  4 23  1  0
  4 24  1  0
  6 25  1  0
 10 26  1  0
 11 27  1  0
 14 28  1  0
 15 29  1  0
 18 30  1  0
 19 31  1  0
 19 32  1  0
 20 33  1  0
 20 34  1  0
 21 35  1  0
 21 36  1  0
 22 37  1  0
 22 38  1  0
M  END
>  <Energy>  (539) 
3361.0604050627171

>  <compound_id>  (539) 
67933

>  <target_id>  (539) 
1

>  <reference_id>  (539) 
7

>  <inspiration_ids>  (539) 
[7, 45]

>  <energy_score>  (539) 
3302.883704273667

>  <distance_score>  (539) 
8.205121674462765

>  <path>  (539) 
/opt/xchem-fragalysis-2/maxwin/BulkDock/SCRATCH/511022/C67933-P7/C67933-P7.minimised.mol

>  <scratch_subdir>  (539) 
/opt/xchem-fragalysis-2/maxwin/BulkDock/SCRATCH/511022/C67933-P7

>  <fragmenstein_runtime>  (539) 
11.20025372505188

>  <fragmenstein_outcome>  (539) 
too moved

>  <fragmenstein_mode>  (539) 
expansion

>  <fragmenstein_error>  (539) 


$$$$
C67933-P45
     RDKit          3D

 38 41  0  0  0  0  0  0  0  0999 V2000
  -11.6032   -6.9731   34.9235 O   0  0  0  0  0  0  0  0  0  0  0  0
  -12.6550   -7.1489   35.5261 C   0  0  0  0  0  0  0  0  0  0  0  0
  -13.2730   -8.6419   36.4336 O   0  0  0  0  0  0  0  0  0  0  0  0
  -13.2695  -10.4609   36.6346 C   0  0  0  0  0  0  0  0  0  0  0  0
  -14.6048  -11.3039   36.0893 C   0  0  0  0  0  0  0  0  0  0  0  0
  -15.8233  -10.8085   36.3941 C   0  0  0  0  0  0  0  0  0  0  0  0
  -17.2088  -11.6309   35.7036 S   0  0  0  0  0  0  0  0  0  0  0  0
  -16.1545  -12.8088   35.0309 C   0  0  0  0  0  0  0  0  0  0  0  0
  -16.4390  -13.9371   34.4333 N   0  0  0  0  0  0  0  0  0  0  0  0
  -15.2369  -14.5461   34.3752 C   0  0  0  0  0  0  0  0  0  0  0  0
  -14.2610  -13.7377   34.9090 C   0  0  0  0  0  0  0  0  0  0  0  0
  -14.8265  -12.5522   35.3371 N   0  0  0  0  0  0  0  0  0  0  0  0
  -13.6191   -5.8010   35.6523 C   0  0  0  0  0  0  0  0  0  0  0  0
  -12.8095   -4.6229   35.8579 C   0  0  0  0  0  0  0  0  0  0  0  0
  -13.3050   -3.9577   37.0058 C   0  0  0  0  0  0  0  0  0  0  0  0
  -14.3815   -4.5666   37.5042 N   0  0  0  0  0  0  0  0  0  0  0  0
  -14.7382   -5.5474   36.6045 N   0  0  0  0  0  0  0  0  0  0  0  0
  -16.0839   -6.0942   36.7288 C   0  0  0  0  0  0  0  0  0  0  0  0
  -17.1744   -5.0323   36.9636 C   0  0  0  0  0  0  0  0  0  0  0  0
  -17.3062   -4.8741   38.4787 C   0  0  0  0  0  0  0  0  0  0  0  0
  -16.5978   -6.0705   39.1038 C   0  0  0  0  0  0  0  0  0  0  0  0
  -16.2545   -7.0023   37.9476 C   0  0  0  0  0  0  0  0  0  0  0  0
  -12.3295  -10.8008   36.1890 H   0  0  0  0  0  0  0  0  0  0  0  0
  -13.2299  -10.5076   37.7272 H   0  0  0  0  0  0  0  0  0  0  0  0
  -15.9847   -9.9303   37.0023 H   0  0  0  0  0  0  0  0  0  0  0  0
  -15.1191  -15.5567   34.0143 H   0  0  0  0  0  0  0  0  0  0  0  0
  -13.3145  -14.1008   35.1909 H   0  0  0  0  0  0  0  0  0  0  0  0
  -11.8544   -4.4372   35.3979 H   0  0  0  0  0  0  0  0  0  0  0  0
  -12.8855   -3.1047   37.5231 H   0  0  0  0  0  0  0  0  0  0  0  0
  -16.3233   -6.5980   35.7942 H   0  0  0  0  0  0  0  0  0  0  0  0
  -16.9753   -4.0753   36.4716 H   0  0  0  0  0  0  0  0  0  0  0  0
  -18.1277   -5.4061   36.5681 H   0  0  0  0  0  0  0  0  0  0  0  0
  -18.3616   -4.8408   38.7702 H   0  0  0  0  0  0  0  0  0  0  0  0
  -16.8498   -3.9384   38.8197 H   0  0  0  0  0  0  0  0  0  0  0  0
  -15.6867   -5.7441   39.6179 H   0  0  0  0  0  0  0  0  0  0  0  0
  -17.2248   -6.5705   39.8491 H   0  0  0  0  0  0  0  0  0  0  0  0
  -17.0977   -7.6830   37.7757 H   0  0  0  0  0  0  0  0  0  0  0  0
  -15.3791   -7.6134   38.1821 H   0  0  0  0  0  0  0  0  0  0  0  0
  1  2  2  0
  2  3  1  0
  3  4  1  0
  4  5  1  0
  5  6  2  0
  6  7  1  0
  7  8  1  0
  8  9  2  0
  9 10  1  0
 10 11  2  0
 11 12  1  0
  2 13  1  0
 13 14  2  0
 14 15  1  0
 15 16  2  0
 16 17  1  0
 17 18  1  0
 18 19  1  0
 19 20  1  0
 20 21  1  0
 21 22  1  0
 12  5  1  0
 17 13  1  0
 22 18  1  0
 12  8  1  0
  4 23  1  0
  4 24  1  0
  6 25  1  0
 10 26  1  0
 11 27  1  0
 14 28  1  0
 15 29  1  0
 18 30  1  0
 19 31  1  0
 19 32  1  0
 20 33  1  0
 20 34  1  0
 21 35  1  0
 21 36  1  0
 22 37  1  0
 22 38  1  0
M  END
>  <Energy>  (540) 
236.93877819457455

>  <compound_id>  (540) 
67933

>  <target_id>  (540) 
1

>  <reference_id>  (540) 
45

>  <inspiration_ids>  (540) 
[7, 45]

>  <energy_score>  (540) 
178.76207740557027

>  <distance_score>  (540) 
13.405166022267423

>  <path>  (540) 
/opt/xchem-fragalysis-2/maxwin/BulkDock/SCRATCH/511022/C67933-P45/C67933-P45.minimised.mol

>  <scratch_subdir>  (540) 
/opt/xchem-fragalysis-2/maxwin/BulkDock/SCRATCH/511022/C67933-P45

>  <fragmenstein_runtime>  (540) 
15.677985429763794

>  <fragmenstein_outcome>  (540) 
too moved

>  <fragmenstein_mode>  (540) 
expansion

>  <fragmenstein_error>  (540) 


$$$$
C67934-P7
     RDKit          3D

 43 46  0  0  0  0  0  0  0  0999 V2000
  -10.9476  -25.5904   28.3033 C   0  0  0  0  0  0  0  0  0  0  0  0
   -9.5857  -25.3990   28.3850 C   0  0  0  0  0  0  0  0  0  0  0  0
   -9.3635  -24.0798   28.0173 N   0  0  0  0  0  0  0  0  0  0  0  0
   -8.0912  -23.1266   27.9198 C   0  0  0  0  0  0  0  0  0  0  0  0
   -8.3347  -21.8757   27.7436 C   0  0  0  0  0  0  0  0  0  0  0  0
   -7.5165  -20.1189   27.6651 C   0  0  0  0  0  0  0  0  0  0  0  0
   -8.3001  -18.2381   27.9054 N   0  0  0  0  0  0  0  0  0  0  0  0
   -8.0616  -16.2218   28.1604 C   0  0  0  0  0  0  0  0  0  0  0  0
   -8.7702  -14.5216   29.4110 C   0  0  0  0  0  0  0  0  0  0  0  0
   -8.9146  -14.3991   31.5310 C   0  0  0  0  0  0  0  0  0  0  0  0
   -7.7760  -13.6826   32.6873 C   0  0  0  0  0  0  0  0  0  0  0  0
   -8.6106  -12.2357   33.2537 C   0  0  0  0  0  0  0  0  0  0  0  0
   -9.4123  -11.2465   32.2639 N   0  0  0  0  0  0  0  0  0  0  0  0
  -10.3038   -9.5883   33.0570 C   0  0  0  0  0  0  0  0  0  0  0  0
   -9.9921   -7.7878   32.9713 C   0  0  0  0  0  0  0  0  0  0  0  0
  -10.7030   -7.0226   34.1370 C   0  0  0  0  0  0  0  0  0  0  0  0
  -11.8214   -8.2964   34.8557 C   0  0  0  0  0  0  0  0  0  0  0  0
  -11.5341   -9.7924   34.4896 C   0  0  0  0  0  0  0  0  0  0  0  0
   -9.6689  -13.1157   32.5896 N   0  0  0  0  0  0  0  0  0  0  0  0
  -10.5314  -21.8821   28.1342 S   0  0  0  0  0  0  0  0  0  0  0  0
  -10.6101  -23.5649   27.9303 C   0  0  0  0  0  0  0  0  0  0  0  0
  -11.5886  -24.4173   28.0266 N   0  0  0  0  0  0  0  0  0  0  0  0
  -11.4992  -26.5060   28.4751 H   0  0  0  0  0  0  0  0  0  0  0  0
   -8.7960  -26.0843   28.6264 H   0  0  0  0  0  0  0  0  0  0  0  0
   -7.0494  -23.3885   28.1031 H   0  0  0  0  0  0  0  0  0  0  0  0
   -7.8193  -20.7269   26.8575 H   0  0  0  0  0  0  0  0  0  0  0  0
   -6.5911  -19.9404   27.0459 H   0  0  0  0  0  0  0  0  0  0  0  0
   -9.0545  -18.1597   27.2269 H   0  0  0  0  0  0  0  0  0  0  0  0
   -6.9686  -16.1194   28.0655 H   0  0  0  0  0  0  0  0  0  0  0  0
   -8.3191  -16.9645   28.7982 H   0  0  0  0  0  0  0  0  0  0  0  0
   -9.6669  -14.0504   28.9708 H   0  0  0  0  0  0  0  0  0  0  0  0
   -7.9090  -13.9157   29.0660 H   0  0  0  0  0  0  0  0  0  0  0  0
   -7.0275  -13.3314   31.9561 H   0  0  0  0  0  0  0  0  0  0  0  0
   -8.5016  -11.7108   34.2058 H   0  0  0  0  0  0  0  0  0  0  0  0
   -9.7282   -9.4981   33.9044 H   0  0  0  0  0  0  0  0  0  0  0  0
   -8.9302   -7.5243   33.0253 H   0  0  0  0  0  0  0  0  0  0  0  0
  -10.3776   -7.4418   32.0137 H   0  0  0  0  0  0  0  0  0  0  0  0
   -9.7052   -6.6376   34.3566 H   0  0  0  0  0  0  0  0  0  0  0  0
  -11.0030   -6.1245   34.7107 H   0  0  0  0  0  0  0  0  0  0  0  0
  -12.9067   -8.5750   35.1513 H   0  0  0  0  0  0  0  0  0  0  0  0
  -11.8211   -7.4901   35.5729 H   0  0  0  0  0  0  0  0  0  0  0  0
  -11.1522  -10.3325   35.3741 H   0  0  0  0  0  0  0  0  0  0  0  0
  -12.4561  -10.3218   34.1861 H   0  0  0  0  0  0  0  0  0  0  0  0
  1  2  2  0
  2  3  1  0
  3  4  1  0
  4  5  2  0
  5  6  1  0
  6  7  1  0
  7  8  1  0
  8  9  1  0
  9 10  1  0
 10 11  1  0
 11 12  2  0
 12 13  1  0
 13 14  1  0
 14 15  1  0
 15 16  1  0
 16 17  1  0
 17 18  1  0
 13 19  1  0
  5 20  1  0
 20 21  1  0
 21 22  2  0
 22  1  1  0
 21  3  1  0
 19 10  2  0
 18 14  1  0
  1 23  1  0
  2 24  1  0
  4 25  1  0
  6 26  1  0
  6 27  1  0
  7 28  1  0
  8 29  1  0
  8 30  1  0
  9 31  1  0
  9 32  1  0
 11 33  1  0
 12 34  1  0
 14 35  1  0
 15 36  1  0
 15 37  1  0
 16 38  1  0
 16 39  1  0
 17 40  1  0
 17 41  1  0
 18 42  1  0
 18 43  1  0
M  END
>  <Energy>  (541) 
1643.3225261161303

>  <compound_id>  (541) 
67934

>  <target_id>  (541) 
1

>  <reference_id>  (541) 
7

>  <inspiration_ids>  (541) 
[7, 45]

>  <energy_score>  (541) 
1544.6024021309759

>  <distance_score>  (541) 
9.624394734681106

>  <path>  (541) 
/opt/xchem-fragalysis-2/maxwin/BulkDock/SCRATCH/511022/C67934-P7/C67934-P7.minimised.mol

>  <scratch_subdir>  (541) 
/opt/xchem-fragalysis-2/maxwin/BulkDock/SCRATCH/511022/C67934-P7

>  <fragmenstein_runtime>  (541) 
18.37449622154236

>  <fragmenstein_outcome>  (541) 
too moved

>  <fragmenstein_mode>  (541) 
expansion

>  <fragmenstein_error>  (541) 


$$$$
C67934-P45
     RDKit          3D

 43 46  0  0  0  0  0  0  0  0999 V2000
   -7.4961  -20.6269   34.8520 C   0  0  0  0  0  0  0  0  0  0  0  0
   -6.9145  -19.3806   34.6716 C   0  0  0  0  0  0  0  0  0  0  0  0
   -7.9763  -18.5362   34.4905 N   0  0  0  0  0  0  0  0  0  0  0  0
   -8.1687  -17.2119   34.1318 C   0  0  0  0  0  0  0  0  0  0  0  0
   -9.4803  -16.8785   34.0007 C   0  0  0  0  0  0  0  0  0  0  0  0
  -10.1404  -15.5459   33.4636 C   0  0  0  0  0  0  0  0  0  0  0  0
   -9.2987  -14.4914   32.5358 N   0  0  0  0  0  0  0  0  0  0  0  0
   -9.1958  -12.6757   33.0673 C   0  0  0  0  0  0  0  0  0  0  0  0
   -9.4214  -10.8096   32.2826 C   0  0  0  0  0  0  0  0  0  0  0  0
  -10.2164   -9.2136   33.3167 C   0  0  0  0  0  0  0  0  0  0  0  0
  -11.2611   -9.4841   34.5179 C   0  0  0  0  0  0  0  0  0  0  0  0
  -11.8029   -7.7740   35.0658 C   0  0  0  0  0  0  0  0  0  0  0  0
  -11.0314   -6.6616   34.5223 N   0  0  0  0  0  0  0  0  0  0  0  0
  -11.5168   -5.1732   35.3177 C   0  0  0  0  0  0  0  0  0  0  0  0
  -11.0341   -3.5278   35.7882 C   0  0  0  0  0  0  0  0  0  0  0  0
  -11.5962   -3.1395   37.1506 C   0  0  0  0  0  0  0  0  0  0  0  0
  -12.7852   -4.0157   37.3559 C   0  0  0  0  0  0  0  0  0  0  0  0
  -12.8496   -4.8813   36.0599 C   0  0  0  0  0  0  0  0  0  0  0  0
   -9.9606   -7.5178   33.3897 N   0  0  0  0  0  0  0  0  0  0  0  0
  -10.5239  -18.2961   34.5048 S   0  0  0  0  0  0  0  0  0  0  0  0
   -9.1034  -19.2815   34.6576 C   0  0  0  0  0  0  0  0  0  0  0  0
   -8.8781  -20.5552   34.8449 N   0  0  0  0  0  0  0  0  0  0  0  0
   -6.9915  -21.5744   34.9902 H   0  0  0  0  0  0  0  0  0  0  0  0
   -5.8903  -19.0508   34.6001 H   0  0  0  0  0  0  0  0  0  0  0  0
   -7.3196  -16.5857   33.9125 H   0  0  0  0  0  0  0  0  0  0  0  0
  -11.1606  -15.4527   33.1422 H   0  0  0  0  0  0  0  0  0  0  0  0
  -10.4428  -15.1542   34.4146 H   0  0  0  0  0  0  0  0  0  0  0  0
   -8.3586  -14.7761   32.8341 H   0  0  0  0  0  0  0  0  0  0  0  0
   -8.1924  -13.0548   33.0203 H   0  0  0  0  0  0  0  0  0  0  0  0
   -8.7309  -12.2109   33.9252 H   0  0  0  0  0  0  0  0  0  0  0  0
   -9.7267  -10.7183   31.2505 H   0  0  0  0  0  0  0  0  0  0  0  0
   -8.3903  -10.8492   32.1948 H   0  0  0  0  0  0  0  0  0  0  0  0
  -11.5358  -10.3652   35.1126 H   0  0  0  0  0  0  0  0  0  0  0  0
  -12.6868   -7.4448   35.5162 H   0  0  0  0  0  0  0  0  0  0  0  0
  -12.0965   -4.9865   34.4409 H   0  0  0  0  0  0  0  0  0  0  0  0
  -10.0099   -3.1616   35.8247 H   0  0  0  0  0  0  0  0  0  0  0  0
  -11.4573   -2.8776   35.0098 H   0  0  0  0  0  0  0  0  0  0  0  0
  -10.8666   -3.3033   37.9490 H   0  0  0  0  0  0  0  0  0  0  0  0
  -11.8562   -2.0762   37.1815 H   0  0  0  0  0  0  0  0  0  0  0  0
  -12.6669   -4.5235   38.3174 H   0  0  0  0  0  0  0  0  0  0  0  0
  -13.7021   -3.4216   37.4567 H   0  0  0  0  0  0  0  0  0  0  0  0
  -13.1693   -4.0699   35.4788 H   0  0  0  0  0  0  0  0  0  0  0  0
  -13.6766   -5.5769   35.8940 H   0  0  0  0  0  0  0  0  0  0  0  0
  1  2  2  0
  2  3  1  0
  3  4  1  0
  4  5  2  0
  5  6  1  0
  6  7  1  0
  7  8  1  0
  8  9  1  0
  9 10  1  0
 10 11  1  0
 11 12  2  0
 12 13  1  0
 13 14  1  0
 14 15  1  0
 15 16  1  0
 16 17  1  0
 17 18  1  0
 13 19  1  0
  5 20  1  0
 20 21  1  0
 21 22  2  0
 22  1  1  0
 21  3  1  0
 19 10  2  0
 18 14  1  0
  1 23  1  0
  2 24  1  0
  4 25  1  0
  6 26  1  0
  6 27  1  0
  7 28  1  0
  8 29  1  0
  8 30  1  0
  9 31  1  0
  9 32  1  0
 11 33  1  0
 12 34  1  0
 14 35  1  0
 15 36  1  0
 15 37  1  0
 16 38  1  0
 16 39  1  0
 17 40  1  0
 17 41  1  0
 18 42  1  0
 18 43  1  0
M  END
>  <Energy>  (542) 
736.57054865279542

>  <compound_id>  (542) 
67934

>  <target_id>  (542) 
1

>  <reference_id>  (542) 
45

>  <inspiration_ids>  (542) 
[7, 45]

>  <energy_score>  (542) 
637.8504246676416

>  <distance_score>  (542) 
10.344055667547162

>  <path>  (542) 
/opt/xchem-fragalysis-2/maxwin/BulkDock/SCRATCH/511022/C67934-P45/C67934-P45.minimised.mol

>  <scratch_subdir>  (542) 
/opt/xchem-fragalysis-2/maxwin/BulkDock/SCRATCH/511022/C67934-P45

>  <fragmenstein_runtime>  (542) 
10.31118369102478

>  <fragmenstein_outcome>  (542) 
too moved

>  <fragmenstein_mode>  (542) 
expansion

>  <fragmenstein_error>  (542) 


$$$$
C67935-P7
     RDKit          3D

 39 42  0  0  0  0  0  0  0  0999 V2000
  -10.2348  -10.0518   29.7601 O   0  0  0  0  0  0  0  0  0  0  0  0
   -9.3336  -10.9532   29.9874 C   0  0  0  0  0  0  0  0  0  0  0  0
   -9.1635  -12.9591   28.9633 N   0  0  0  0  0  0  0  0  0  0  0  0
  -10.0450  -13.6317   27.6445 C   0  0  0  0  0  0  0  0  0  0  0  0
  -11.2659  -13.4185   27.0876 C   0  0  0  0  0  0  0  0  0  0  0  0
  -11.6920  -13.9092   25.7734 C   0  0  0  0  0  0  0  0  0  0  0  0
  -10.8928  -14.6058   24.9721 C   0  0  0  0  0  0  0  0  0  0  0  0
   -9.5561  -14.7282   25.3569 C   0  0  0  0  0  0  0  0  0  0  0  0
   -8.5604  -15.0272   24.5608 N   0  0  0  0  0  0  0  0  0  0  0  0
   -7.5099  -14.4207   25.1468 C   0  0  0  0  0  0  0  0  0  0  0  0
   -7.8243  -13.9797   26.4172 C   0  0  0  0  0  0  0  0  0  0  0  0
   -9.1610  -14.2058   26.6056 N   0  0  0  0  0  0  0  0  0  0  0  0
   -8.1415  -10.2861   31.1187 C   0  0  0  0  0  0  0  0  0  0  0  0
   -7.4619   -9.2115   30.4179 C   0  0  0  0  0  0  0  0  0  0  0  0
   -6.4813   -8.6610   31.0909 N   0  0  0  0  0  0  0  0  0  0  0  0
   -6.6572   -9.1383   32.3363 N   0  0  0  0  0  0  0  0  0  0  0  0
   -5.8307   -8.3974   33.2644 C   0  0  0  0  0  0  0  0  0  0  0  0
   -5.3306   -8.8401   34.6321 C   0  0  0  0  0  0  0  0  0  0  0  0
   -5.0546   -7.5258   35.3490 C   0  0  0  0  0  0  0  0  0  0  0  0
   -6.1278   -6.5859   34.8455 C   0  0  0  0  0  0  0  0  0  0  0  0
   -6.4271   -7.0157   33.4421 C   0  0  0  0  0  0  0  0  0  0  0  0
   -7.7539  -10.0000   32.4191 C   0  0  0  0  0  0  0  0  0  0  0  0
   -8.3000  -13.4850   29.2551 H   0  0  0  0  0  0  0  0  0  0  0  0
  -12.0311  -12.7823   27.4804 H   0  0  0  0  0  0  0  0  0  0  0  0
  -12.7048  -13.6850   25.4498 H   0  0  0  0  0  0  0  0  0  0  0  0
  -11.2055  -14.9518   23.9945 H   0  0  0  0  0  0  0  0  0  0  0  0
   -6.5582  -14.3472   24.6359 H   0  0  0  0  0  0  0  0  0  0  0  0
   -7.2349  -13.4486   27.1410 H   0  0  0  0  0  0  0  0  0  0  0  0
   -7.6292   -8.8894   29.3967 H   0  0  0  0  0  0  0  0  0  0  0  0
   -4.8868   -8.2568   32.7076 H   0  0  0  0  0  0  0  0  0  0  0  0
   -6.0374   -9.4369   35.1923 H   0  0  0  0  0  0  0  0  0  0  0  0
   -4.4067   -9.4203   34.5673 H   0  0  0  0  0  0  0  0  0  0  0  0
   -4.0678   -7.1475   35.0540 H   0  0  0  0  0  0  0  0  0  0  0  0
   -5.0478   -7.6386   36.4355 H   0  0  0  0  0  0  0  0  0  0  0  0
   -7.0489   -6.6764   35.4151 H   0  0  0  0  0  0  0  0  0  0  0  0
   -5.8026   -5.5472   34.8548 H   0  0  0  0  0  0  0  0  0  0  0  0
   -5.9451   -6.3397   32.7294 H   0  0  0  0  0  0  0  0  0  0  0  0
   -7.5073   -7.0127   33.2688 H   0  0  0  0  0  0  0  0  0  0  0  0
   -8.1414  -10.3028   33.3719 H   0  0  0  0  0  0  0  0  0  0  0  0
  1  2  2  0
  2  3  1  0
  3  4  1  0
  4  5  2  0
  5  6  1  0
  6  7  2  0
  7  8  1  0
  8  9  2  0
  9 10  1  0
 10 11  2  0
 11 12  1  0
  2 13  1  0
 13 14  1  0
 14 15  2  0
 15 16  1  0
 16 17  1  0
 17 18  1  0
 18 19  1  0
 19 20  1  0
 20 21  1  0
 16 22  1  0
 12  4  1  0
 22 13  2  0
 12  8  1  0
 21 17  1  0
  3 23  1  0
  5 24  1  0
  6 25  1  0
  7 26  1  0
 10 27  1  0
 11 28  1  0
 14 29  1  0
 17 30  1  0
 18 31  1  0
 18 32  1  0
 19 33  1  0
 19 34  1  0
 20 35  1  0
 20 36  1  0
 21 37  1  0
 21 38  1  0
 22 39  1  0
M  END
>  <Energy>  (543) 
561.61144222188204

>  <compound_id>  (543) 
67935

>  <target_id>  (543) 
1

>  <reference_id>  (543) 
7

>  <inspiration_ids>  (543) 
[7, 45]

>  <energy_score>  (543) 
472.2338831074153

>  <distance_score>  (543) 
12.172736350736347

>  <path>  (543) 
/opt/xchem-fragalysis-2/maxwin/BulkDock/SCRATCH/511022/C67935-P7/C67935-P7.minimised.mol

>  <scratch_subdir>  (543) 
/opt/xchem-fragalysis-2/maxwin/BulkDock/SCRATCH/511022/C67935-P7

>  <fragmenstein_runtime>  (543) 
16.128572463989258

>  <fragmenstein_outcome>  (543) 
too moved

>  <fragmenstein_mode>  (543) 
expansion

>  <fragmenstein_error>  (543) 


$$$$
C67935-P45
     RDKit          3D

 39 42  0  0  0  0  0  0  0  0999 V2000
   -8.3818  -16.9330   33.8041 O   0  0  0  0  0  0  0  0  0  0  0  0
   -7.5987  -16.5263   32.9593 C   0  0  0  0  0  0  0  0  0  0  0  0
   -6.5135  -17.5706   31.9063 N   0  0  0  0  0  0  0  0  0  0  0  0
   -6.3558  -19.5001   31.6698 C   0  0  0  0  0  0  0  0  0  0  0  0
   -7.1887  -21.0833   31.6221 C   0  0  0  0  0  0  0  0  0  0  0  0
   -7.2081  -22.3042   29.6149 C   0  0  0  0  0  0  0  0  0  0  0  0
   -7.4573  -21.3202   28.2052 C   0  0  0  0  0  0  0  0  0  0  0  0
   -8.1037  -19.5201   28.6630 C   0  0  0  0  0  0  0  0  0  0  0  0
   -8.4809  -18.4192   28.0118 N   0  0  0  0  0  0  0  0  0  0  0  0
   -7.6779  -17.2806   28.2318 C   0  0  0  0  0  0  0  0  0  0  0  0
   -6.2489  -17.6233   28.9589 C   0  0  0  0  0  0  0  0  0  0  0  0
   -7.0238  -18.7078   30.0359 N   0  0  0  0  0  0  0  0  0  0  0  0
   -7.6649  -14.5508   32.6176 C   0  0  0  0  0  0  0  0  0  0  0  0
   -8.6372  -12.9878   33.1488 C   0  0  0  0  0  0  0  0  0  0  0  0
   -8.3823  -11.5962   32.7646 N   0  0  0  0  0  0  0  0  0  0  0  0
   -7.1262  -11.6774   32.0253 N   0  0  0  0  0  0  0  0  0  0  0  0
   -6.6187  -10.3340   31.5295 C   0  0  0  0  0  0  0  0  0  0  0  0
   -5.8772   -9.3456   32.4858 C   0  0  0  0  0  0  0  0  0  0  0  0
   -6.6930   -8.0531   32.6036 C   0  0  0  0  0  0  0  0  0  0  0  0
   -8.0840   -8.4705   32.2194 C   0  0  0  0  0  0  0  0  0  0  0  0
   -7.7968   -9.3988   31.0581 C   0  0  0  0  0  0  0  0  0  0  0  0
   -6.8954  -13.4280   31.6774 C   0  0  0  0  0  0  0  0  0  0  0  0
   -6.0359  -16.9940   31.2479 H   0  0  0  0  0  0  0  0  0  0  0  0
   -7.4614  -21.3534   32.7025 H   0  0  0  0  0  0  0  0  0  0  0  0
   -6.8377  -23.3145   29.3090 H   0  0  0  0  0  0  0  0  0  0  0  0
   -7.5293  -21.7638   27.2479 H   0  0  0  0  0  0  0  0  0  0  0  0
   -7.9106  -16.3104   27.7822 H   0  0  0  0  0  0  0  0  0  0  0  0
   -5.5560  -16.9723   29.4688 H   0  0  0  0  0  0  0  0  0  0  0  0
   -9.6448  -13.3501   33.1053 H   0  0  0  0  0  0  0  0  0  0  0  0
   -5.9198  -10.5504   30.7143 H   0  0  0  0  0  0  0  0  0  0  0  0
   -5.7141   -9.6845   33.4929 H   0  0  0  0  0  0  0  0  0  0  0  0
   -4.8879   -9.1061   32.0768 H   0  0  0  0  0  0  0  0  0  0  0  0
   -6.3007   -7.3185   31.8907 H   0  0  0  0  0  0  0  0  0  0  0  0
   -6.6348   -7.6078   33.6002 H   0  0  0  0  0  0  0  0  0  0  0  0
   -8.7264   -7.6476   31.9270 H   0  0  0  0  0  0  0  0  0  0  0  0
   -8.5879   -9.0050   33.0254 H   0  0  0  0  0  0  0  0  0  0  0  0
   -7.4590   -8.8151   30.1912 H   0  0  0  0  0  0  0  0  0  0  0  0
   -8.7297   -9.8824   30.7780 H   0  0  0  0  0  0  0  0  0  0  0  0
   -6.1590  -13.5665   30.8859 H   0  0  0  0  0  0  0  0  0  0  0  0
  1  2  2  0
  2  3  1  0
  3  4  1  0
  4  5  2  0
  5  6  1  0
  6  7  2  0
  7  8  1  0
  8  9  2  0
  9 10  1  0
 10 11  2  0
 11 12  1  0
  2 13  1  0
 13 14  1  0
 14 15  2  0
 15 16  1  0
 16 17  1  0
 17 18  1  0
 18 19  1  0
 19 20  1  0
 20 21  1  0
 16 22  1  0
 12  4  1  0
 22 13  2  0
 12  8  1  0
 21 17  1  0
  3 23  1  0
  5 24  1  0
  6 25  1  0
  7 26  1  0
 10 27  1  0
 11 28  1  0
 14 29  1  0
 17 30  1  0
 18 31  1  0
 18 32  1  0
 19 33  1  0
 19 34  1  0
 20 35  1  0
 20 36  1  0
 21 37  1  0
 21 38  1  0
 22 39  1  0
M  END
>  <Energy>  (544) 
1450.1717908169855

>  <compound_id>  (544) 
67935

>  <target_id>  (544) 
1

>  <reference_id>  (544) 
45

>  <inspiration_ids>  (544) 
[7, 45]

>  <energy_score>  (544) 
1360.7942317025097

>  <distance_score>  (544) 
10.680753713018921

>  <path>  (544) 
/opt/xchem-fragalysis-2/maxwin/BulkDock/SCRATCH/511022/C67935-P45/C67935-P45.minimised.mol

>  <scratch_subdir>  (544) 
/opt/xchem-fragalysis-2/maxwin/BulkDock/SCRATCH/511022/C67935-P45

>  <fragmenstein_runtime>  (544) 
14.20950722694397

>  <fragmenstein_outcome>  (544) 
too moved

>  <fragmenstein_mode>  (544) 
expansion

>  <fragmenstein_error>  (544) 


$$$$
C67936-P7
     RDKit          3D

 39 42  0  0  0  0  0  0  0  0999 V2000
   -9.4951   -9.8349   29.4258 O   0  0  0  0  0  0  0  0  0  0  0  0
   -9.3998  -10.8655   30.1200 C   0  0  0  0  0  0  0  0  0  0  0  0
   -9.1742  -13.0232   29.0023 C   0  0  0  0  0  0  0  0  0  0  0  0
   -9.3375  -13.6228   27.2962 C   0  0  0  0  0  0  0  0  0  0  0  0
   -8.3320  -13.6912   26.3911 C   0  0  0  0  0  0  0  0  0  0  0  0
   -8.7321  -14.6029   24.9240 S   0  0  0  0  0  0  0  0  0  0  0  0
  -10.2330  -15.0425   25.6544 C   0  0  0  0  0  0  0  0  0  0  0  0
  -11.1440  -15.9412   25.3900 N   0  0  0  0  0  0  0  0  0  0  0  0
  -12.0861  -15.7175   26.3651 C   0  0  0  0  0  0  0  0  0  0  0  0
  -11.6930  -14.7126   27.2352 C   0  0  0  0  0  0  0  0  0  0  0  0
  -10.4381  -14.3563   26.8222 N   0  0  0  0  0  0  0  0  0  0  0  0
   -9.6075  -10.6427   32.0183 N   0  0  0  0  0  0  0  0  0  0  0  0
  -10.0842   -9.1123   33.1289 C   0  0  0  0  0  0  0  0  0  0  0  0
   -9.1402   -7.7004   33.5227 C   0  0  0  0  0  0  0  0  0  0  0  0
   -8.6751   -7.0702   32.5573 C   0  0  0  0  0  0  0  0  0  0  0  0
   -9.9623   -7.1721   32.2836 N   0  0  0  0  0  0  0  0  0  0  0  0
  -10.3837   -7.3822   33.5488 N   0  0  0  0  0  0  0  0  0  0  0  0
  -11.0214   -6.3325   35.0114 C   0  0  0  0  0  0  0  0  0  0  0  0
  -12.1114   -4.8866   35.7468 C   0  0  0  0  0  0  0  0  0  0  0  0
  -11.6490   -3.4484   35.6261 C   0  0  0  0  0  0  0  0  0  0  0  0
  -10.4104   -3.7300   36.4146 C   0  0  0  0  0  0  0  0  0  0  0  0
  -10.0909   -5.4360   35.9488 C   0  0  0  0  0  0  0  0  0  0  0  0
   -9.8124  -13.9402   29.3391 H   0  0  0  0  0  0  0  0  0  0  0  0
   -8.1942  -13.6808   29.0423 H   0  0  0  0  0  0  0  0  0  0  0  0
   -7.3417  -13.2803   26.5276 H   0  0  0  0  0  0  0  0  0  0  0  0
  -13.0097  -16.2824   26.3892 H   0  0  0  0  0  0  0  0  0  0  0  0
  -12.1631  -14.2855   28.1073 H   0  0  0  0  0  0  0  0  0  0  0  0
   -9.4269  -11.5140   32.4535 H   0  0  0  0  0  0  0  0  0  0  0  0
   -8.8655   -6.9511   34.3300 H   0  0  0  0  0  0  0  0  0  0  0  0
   -7.6987   -6.7202   32.2833 H   0  0  0  0  0  0  0  0  0  0  0  0
  -11.5119   -7.1737   35.3989 H   0  0  0  0  0  0  0  0  0  0  0  0
  -11.9507   -4.8047   36.8012 H   0  0  0  0  0  0  0  0  0  0  0  0
  -13.1695   -5.0628   36.0454 H   0  0  0  0  0  0  0  0  0  0  0  0
  -11.4786   -3.1178   34.6023 H   0  0  0  0  0  0  0  0  0  0  0  0
  -12.3046   -2.7304   36.1291 H   0  0  0  0  0  0  0  0  0  0  0  0
  -10.5707   -3.6574   37.5010 H   0  0  0  0  0  0  0  0  0  0  0  0
   -9.6612   -2.9881   36.1119 H   0  0  0  0  0  0  0  0  0  0  0  0
   -9.0114   -5.5851   35.8214 H   0  0  0  0  0  0  0  0  0  0  0  0
  -10.4373   -5.1218   35.0325 H   0  0  0  0  0  0  0  0  0  0  0  0
  1  2  2  0
  2  3  1  0
  3  4  1  0
  4  5  2  0
  5  6  1  0
  6  7  1  0
  7  8  2  0
  8  9  1  0
  9 10  2  0
 10 11  1  0
  2 12  1  0
 12 13  1  0
 13 14  2  0
 14 15  1  0
 15 16  2  0
 16 17  1  0
 17 18  1  0
 18 19  1  0
 19 20  1  0
 20 21  1  0
 21 22  1  0
 11  4  1  0
 17 13  1  0
 22 18  1  0
 11  7  1  0
  3 23  1  0
  3 24  1  0
  5 25  1  0
  9 26  1  0
 10 27  1  0
 12 28  1  0
 14 29  1  0
 15 30  1  0
 18 31  1  0
 19 32  1  0
 19 33  1  0
 20 34  1  0
 20 35  1  0
 21 36  1  0
 21 37  1  0
 22 38  1  0
 22 39  1  0
M  END
>  <Energy>  (545) 
1414.2664029075709

>  <compound_id>  (545) 
67936

>  <target_id>  (545) 
1

>  <reference_id>  (545) 
7

>  <inspiration_ids>  (545) 
[7, 45]

>  <energy_score>  (545) 
1279.67807625469

>  <distance_score>  (545) 
10.159800877456144

>  <path>  (545) 
/opt/xchem-fragalysis-2/maxwin/BulkDock/SCRATCH/511022/C67936-P7/C67936-P7.minimised.mol

>  <scratch_subdir>  (545) 
/opt/xchem-fragalysis-2/maxwin/BulkDock/SCRATCH/511022/C67936-P7

>  <fragmenstein_runtime>  (545) 
12.594921827316284

>  <fragmenstein_outcome>  (545) 
too moved

>  <fragmenstein_mode>  (545) 
expansion

>  <fragmenstein_error>  (545) 


$$$$
C67936-P45
     RDKit          3D

 39 42  0  0  0  0  0  0  0  0999 V2000
   -9.1038   -8.6229   28.5598 O   0  0  0  0  0  0  0  0  0  0  0  0
   -9.9581   -9.3737   28.9536 C   0  0  0  0  0  0  0  0  0  0  0  0
   -9.3809  -10.9729   29.9079 C   0  0  0  0  0  0  0  0  0  0  0  0
   -9.2000  -13.1452   28.8875 C   0  0  0  0  0  0  0  0  0  0  0  0
  -10.5189  -13.9051   28.3369 C   0  0  0  0  0  0  0  0  0  0  0  0
  -10.8043  -14.3195   26.6295 S   0  0  0  0  0  0  0  0  0  0  0  0
   -9.1339  -14.1465   26.3895 C   0  0  0  0  0  0  0  0  0  0  0  0
   -8.5127  -14.3390   25.2607 N   0  0  0  0  0  0  0  0  0  0  0  0
   -7.3222  -13.7468   25.4781 C   0  0  0  0  0  0  0  0  0  0  0  0
   -7.2036  -13.3466   26.7935 C   0  0  0  0  0  0  0  0  0  0  0  0
   -8.4056  -13.5619   27.4395 N   0  0  0  0  0  0  0  0  0  0  0  0
  -11.3917   -9.2691   28.9037 N   0  0  0  0  0  0  0  0  0  0  0  0
  -12.2228   -8.2346   28.4731 C   0  0  0  0  0  0  0  0  0  0  0  0
  -13.6007   -8.3871   28.3916 C   0  0  0  0  0  0  0  0  0  0  0  0
  -14.1414   -7.1121   28.2351 C   0  0  0  0  0  0  0  0  0  0  0  0
  -13.1969   -6.1910   28.1575 N   0  0  0  0  0  0  0  0  0  0  0  0
  -12.0233   -6.8798   28.2404 N   0  0  0  0  0  0  0  0  0  0  0  0
  -10.8311   -6.0682   28.2228 C   0  0  0  0  0  0  0  0  0  0  0  0
  -10.0551   -6.0660   26.9108 C   0  0  0  0  0  0  0  0  0  0  0  0
   -9.0645   -4.9213   27.1249 C   0  0  0  0  0  0  0  0  0  0  0  0
   -9.7846   -3.8792   27.9797 C   0  0  0  0  0  0  0  0  0  0  0  0
  -11.0878   -4.5425   28.3852 C   0  0  0  0  0  0  0  0  0  0  0  0
   -9.6073  -10.7955   31.0136 H   0  0  0  0  0  0  0  0  0  0  0  0
   -8.4078  -10.3182   30.1062 H   0  0  0  0  0  0  0  0  0  0  0  0
  -11.4448  -14.0430   28.8932 H   0  0  0  0  0  0  0  0  0  0  0  0
   -6.5779  -13.6642   24.6971 H   0  0  0  0  0  0  0  0  0  0  0  0
   -6.3801  -12.8542   27.2489 H   0  0  0  0  0  0  0  0  0  0  0  0
  -11.7909  -10.1158   29.2510 H   0  0  0  0  0  0  0  0  0  0  0  0
  -14.1511   -9.3088   28.5111 H   0  0  0  0  0  0  0  0  0  0  0  0
  -15.1798   -6.8150   28.1743 H   0  0  0  0  0  0  0  0  0  0  0  0
  -10.1875   -6.4440   29.0134 H   0  0  0  0  0  0  0  0  0  0  0  0
   -9.5506   -7.0112   26.6970 H   0  0  0  0  0  0  0  0  0  0  0  0
  -10.7157   -5.8476   26.0621 H   0  0  0  0  0  0  0  0  0  0  0  0
   -8.7240   -4.5026   26.1727 H   0  0  0  0  0  0  0  0  0  0  0  0
   -8.1777   -5.2883   27.6551 H   0  0  0  0  0  0  0  0  0  0  0  0
   -9.9773   -2.9642   27.4091 H   0  0  0  0  0  0  0  0  0  0  0  0
   -9.1773   -3.5944   28.8425 H   0  0  0  0  0  0  0  0  0  0  0  0
  -11.4356   -4.2297   29.3707 H   0  0  0  0  0  0  0  0  0  0  0  0
  -11.8577   -4.2017   27.6784 H   0  0  0  0  0  0  0  0  0  0  0  0
  1  2  2  0
  2  3  1  0
  3  4  1  0
  4  5  2  0
  5  6  1  0
  6  7  1  0
  7  8  2  0
  8  9  1  0
  9 10  2  0
 10 11  1  0
  2 12  1  0
 12 13  1  0
 13 14  2  0
 14 15  1  0
 15 16  2  0
 16 17  1  0
 17 18  1  0
 18 19  1  0
 19 20  1  0
 20 21  1  0
 21 22  1  0
 11  4  1  0
 17 13  1  0
 22 18  1  0
 11  7  1  0
  3 23  1  0
  3 24  1  0
  5 25  1  0
  9 26  1  0
 10 27  1  0
 12 28  1  0
 14 29  1  0
 15 30  1  0
 18 31  1  0
 19 32  1  0
 19 33  1  0
 20 34  1  0
 20 35  1  0
 21 36  1  0
 21 37  1  0
 22 38  1  0
 22 39  1  0
M  END
>  <Energy>  (546) 
581.36153661208755

>  <compound_id>  (546) 
67936

>  <target_id>  (546) 
1

>  <reference_id>  (546) 
45

>  <inspiration_ids>  (546) 
[7, 45]

>  <energy_score>  (546) 
446.77320995920184

>  <distance_score>  (546) 
12.168834762382158

>  <path>  (546) 
/opt/xchem-fragalysis-2/maxwin/BulkDock/SCRATCH/511022/C67936-P45/C67936-P45.minimised.mol

>  <scratch_subdir>  (546) 
/opt/xchem-fragalysis-2/maxwin/BulkDock/SCRATCH/511022/C67936-P45

>  <fragmenstein_runtime>  (546) 
15.497521162033081

>  <fragmenstein_outcome>  (546) 
too moved

>  <fragmenstein_mode>  (546) 
expansion

>  <fragmenstein_error>  (546) 


$$$$
C67937-P7
     RDKit          3D

 40 43  0  0  0  0  0  0  0  0999 V2000
   -6.1921  -22.5609   27.4481 C   0  0  0  0  0  0  0  0  0  0  0  0
   -6.0439  -21.2106   27.5164 C   0  0  0  0  0  0  0  0  0  0  0  0
   -7.4350  -20.2269   27.8437 N   0  0  0  0  0  0  0  0  0  0  0  0
   -7.9634  -18.7404   29.1385 C   0  0  0  0  0  0  0  0  0  0  0  0
   -7.6818  -17.7861   31.1987 C   0  0  0  0  0  0  0  0  0  0  0  0
   -8.4686  -16.0481   32.3932 N   0  0  0  0  0  0  0  0  0  0  0  0
   -9.0157  -13.9557   32.5873 C   0  0  0  0  0  0  0  0  0  0  0  0
   -8.9322  -11.6891   32.8553 C   0  0  0  0  0  0  0  0  0  0  0  0
   -9.5505  -10.6355   32.0016 C   0  0  0  0  0  0  0  0  0  0  0  0
  -10.6804   -9.1725   32.7909 C   0  0  0  0  0  0  0  0  0  0  0  0
  -11.0949   -9.6361   33.9155 N   0  0  0  0  0  0  0  0  0  0  0  0
   -9.5889   -9.7512   33.3553 N   0  0  0  0  0  0  0  0  0  0  0  0
   -9.3089   -7.7255   33.5837 C   0  0  0  0  0  0  0  0  0  0  0  0
   -8.4197   -6.3489   34.7475 C   0  0  0  0  0  0  0  0  0  0  0  0
   -9.5776   -5.4772   35.8820 C   0  0  0  0  0  0  0  0  0  0  0  0
  -10.8994   -5.4910   35.3749 C   0  0  0  0  0  0  0  0  0  0  0  0
  -10.7621   -6.7839   34.5524 C   0  0  0  0  0  0  0  0  0  0  0  0
   -9.0620  -19.3239   28.2328 C   0  0  0  0  0  0  0  0  0  0  0  0
  -10.1482  -21.4022   28.4000 S   0  0  0  0  0  0  0  0  0  0  0  0
   -8.1079  -21.7746   27.6389 C   0  0  0  0  0  0  0  0  0  0  0  0
   -7.4430  -22.8670   27.7496 N   0  0  0  0  0  0  0  0  0  0  0  0
   -5.4228  -23.2481   27.1794 H   0  0  0  0  0  0  0  0  0  0  0  0
   -5.5606  -20.5154   26.8613 H   0  0  0  0  0  0  0  0  0  0  0  0
   -7.3268  -18.2733   32.1371 H   0  0  0  0  0  0  0  0  0  0  0  0
   -6.5789  -17.5249   31.1525 H   0  0  0  0  0  0  0  0  0  0  0  0
   -7.9894  -16.1753   33.2958 H   0  0  0  0  0  0  0  0  0  0  0  0
   -7.9161  -13.9355   32.7758 H   0  0  0  0  0  0  0  0  0  0  0  0
   -9.9463  -14.2671   33.0832 H   0  0  0  0  0  0  0  0  0  0  0  0
   -9.5876  -10.5993   30.9143 H   0  0  0  0  0  0  0  0  0  0  0  0
  -11.0330   -8.4102   32.1355 H   0  0  0  0  0  0  0  0  0  0  0  0
   -9.3320   -7.3365   32.5874 H   0  0  0  0  0  0  0  0  0  0  0  0
   -7.5165   -5.9314   34.2999 H   0  0  0  0  0  0  0  0  0  0  0  0
   -7.8078   -6.7273   35.6091 H   0  0  0  0  0  0  0  0  0  0  0  0
   -9.6165   -4.4311   36.2239 H   0  0  0  0  0  0  0  0  0  0  0  0
   -9.5924   -6.0884   36.7245 H   0  0  0  0  0  0  0  0  0  0  0  0
  -11.1865   -4.5215   34.9340 H   0  0  0  0  0  0  0  0  0  0  0  0
  -11.6812   -5.3330   36.0775 H   0  0  0  0  0  0  0  0  0  0  0  0
  -11.4465   -7.4584   35.0357 H   0  0  0  0  0  0  0  0  0  0  0  0
  -11.4194   -6.4387   33.9633 H   0  0  0  0  0  0  0  0  0  0  0  0
   -9.4186  -20.1985   27.4812 H   0  0  0  0  0  0  0  0  0  0  0  0
  1  2  2  0
  2  3  1  0
  3  4  1  0
  4  5  1  0
  5  6  1  0
  6  7  1  0
  7  8  1  0
  8  9  2  0
  9 10  1  0
 10 11  2  0
 11 12  1  0
 12 13  1  0
 13 14  1  0
 14 15  1  0
 15 16  1  0
 16 17  1  0
  4 18  2  0
 18 19  1  0
 19 20  1  0
 20 21  2  0
 21  1  1  0
 20  3  1  0
 12  8  1  0
 17 13  1  0
  1 22  1  0
  2 23  1  0
  5 24  1  0
  5 25  1  0
  6 26  1  0
  7 27  1  0
  7 28  1  0
  9 29  1  0
 10 30  1  0
 13 31  1  0
 14 32  1  0
 14 33  1  0
 15 34  1  0
 15 35  1  0
 16 36  1  0
 16 37  1  0
 17 38  1  0
 17 39  1  0
 18 40  1  0
M  END
>  <Energy>  (547) 
2632.6516925292021

>  <compound_id>  (547) 
67937

>  <target_id>  (547) 
1

>  <reference_id>  (547) 
7

>  <inspiration_ids>  (547) 
[7, 45]

>  <energy_score>  (547) 
2564.801906774457

>  <distance_score>  (547) 
8.091167505638907

>  <path>  (547) 
/opt/xchem-fragalysis-2/maxwin/BulkDock/SCRATCH/511022/C67937-P7/C67937-P7.minimised.mol

>  <scratch_subdir>  (547) 
/opt/xchem-fragalysis-2/maxwin/BulkDock/SCRATCH/511022/C67937-P7

>  <fragmenstein_runtime>  (547) 
10.531393766403198

>  <fragmenstein_outcome>  (547) 
too moved

>  <fragmenstein_mode>  (547) 
expansion

>  <fragmenstein_error>  (547) 


$$$$
C67937-P45
     RDKit          3D

 40 43  0  0  0  0  0  0  0  0999 V2000
  -14.0020  -20.2912   26.9235 C   0  0  0  0  0  0  0  0  0  0  0  0
  -13.9241  -19.4569   28.0195 C   0  0  0  0  0  0  0  0  0  0  0  0
  -13.2613  -18.2999   27.6355 N   0  0  0  0  0  0  0  0  0  0  0  0
  -12.6352  -17.0393   28.1436 C   0  0  0  0  0  0  0  0  0  0  0  0
  -12.8944  -15.9834   29.7366 C   0  0  0  0  0  0  0  0  0  0  0  0
  -12.6252  -15.2408   31.1566 N   0  0  0  0  0  0  0  0  0  0  0  0
  -13.1911  -15.2417   32.8295 C   0  0  0  0  0  0  0  0  0  0  0  0
  -14.0834  -13.9928   33.7283 C   0  0  0  0  0  0  0  0  0  0  0  0
  -14.7006  -12.7738   33.3431 C   0  0  0  0  0  0  0  0  0  0  0  0
  -15.1719  -12.1154   34.4642 C   0  0  0  0  0  0  0  0  0  0  0  0
  -15.0694  -12.9011   35.5146 N   0  0  0  0  0  0  0  0  0  0  0  0
  -14.6439  -14.0991   35.0099 N   0  0  0  0  0  0  0  0  0  0  0  0
  -15.2826  -15.2736   35.5846 C   0  0  0  0  0  0  0  0  0  0  0  0
  -14.8755  -15.6532   37.0087 C   0  0  0  0  0  0  0  0  0  0  0  0
  -15.6935  -14.7382   37.9254 C   0  0  0  0  0  0  0  0  0  0  0  0
  -16.9834  -14.4430   37.1613 C   0  0  0  0  0  0  0  0  0  0  0  0
  -16.8015  -15.0612   35.7668 C   0  0  0  0  0  0  0  0  0  0  0  0
  -11.9972  -16.5423   27.0148 C   0  0  0  0  0  0  0  0  0  0  0  0
  -12.3575  -17.2336   25.4546 S   0  0  0  0  0  0  0  0  0  0  0  0
  -13.1356  -18.5193   26.2700 C   0  0  0  0  0  0  0  0  0  0  0  0
  -13.5200  -19.6793   25.8180 N   0  0  0  0  0  0  0  0  0  0  0  0
  -14.4334  -21.2827   26.8769 H   0  0  0  0  0  0  0  0  0  0  0  0
  -14.3345  -19.6410   28.9850 H   0  0  0  0  0  0  0  0  0  0  0  0
  -13.9350  -15.7822   29.6887 H   0  0  0  0  0  0  0  0  0  0  0  0
  -12.3071  -15.1576   29.3174 H   0  0  0  0  0  0  0  0  0  0  0  0
  -11.6853  -15.5500   31.3711 H   0  0  0  0  0  0  0  0  0  0  0  0
  -12.2412  -15.1837   33.3728 H   0  0  0  0  0  0  0  0  0  0  0  0
  -13.6197  -16.2030   33.0984 H   0  0  0  0  0  0  0  0  0  0  0  0
  -14.7601  -12.3845   32.3416 H   0  0  0  0  0  0  0  0  0  0  0  0
  -15.6248  -11.1420   34.5555 H   0  0  0  0  0  0  0  0  0  0  0  0
  -15.0962  -16.1051   34.8974 H   0  0  0  0  0  0  0  0  0  0  0  0
  -15.1788  -16.6918   37.1983 H   0  0  0  0  0  0  0  0  0  0  0  0
  -13.8034  -15.6095   37.1944 H   0  0  0  0  0  0  0  0  0  0  0  0
  -15.8959  -15.2218   38.8867 H   0  0  0  0  0  0  0  0  0  0  0  0
  -15.1631  -13.8066   38.1422 H   0  0  0  0  0  0  0  0  0  0  0  0
  -17.1637  -13.3644   37.1045 H   0  0  0  0  0  0  0  0  0  0  0  0
  -17.8513  -14.8847   37.6629 H   0  0  0  0  0  0  0  0  0  0  0  0
  -17.2659  -14.4549   34.9820 H   0  0  0  0  0  0  0  0  0  0  0  0
  -17.3001  -16.0393   35.7513 H   0  0  0  0  0  0  0  0  0  0  0  0
  -11.4172  -15.6256   26.9620 H   0  0  0  0  0  0  0  0  0  0  0  0
  1  2  2  0
  2  3  1  0
  3  4  1  0
  4  5  1  0
  5  6  1  0
  6  7  1  0
  7  8  1  0
  8  9  2  0
  9 10  1  0
 10 11  2  0
 11 12  1  0
 12 13  1  0
 13 14  1  0
 14 15  1  0
 15 16  1  0
 16 17  1  0
  4 18  2  0
 18 19  1  0
 19 20  1  0
 20 21  2  0
 21  1  1  0
 20  3  1  0
 12  8  1  0
 17 13  1  0
  1 22  1  0
  2 23  1  0
  5 24  1  0
  5 25  1  0
  6 26  1  0
  7 27  1  0
  7 28  1  0
  9 29  1  0
 10 30  1  0
 13 31  1  0
 14 32  1  0
 14 33  1  0
 15 34  1  0
 15 35  1  0
 16 36  1  0
 16 37  1  0
 17 38  1  0
 17 39  1  0
 18 40  1  0
M  END
>  <Energy>  (548) 
259.23755635873482

>  <compound_id>  (548) 
67937

>  <target_id>  (548) 
1

>  <reference_id>  (548) 
45

>  <inspiration_ids>  (548) 
[7, 45]

>  <energy_score>  (548) 
191.38777060401947

>  <distance_score>  (548) 
11.847146437293375

>  <path>  (548) 
/opt/xchem-fragalysis-2/maxwin/BulkDock/SCRATCH/511022/C67937-P45/C67937-P45.minimised.mol

>  <scratch_subdir>  (548) 
/opt/xchem-fragalysis-2/maxwin/BulkDock/SCRATCH/511022/C67937-P45

>  <fragmenstein_runtime>  (548) 
10.488651514053345

>  <fragmenstein_outcome>  (548) 
too moved

>  <fragmenstein_mode>  (548) 
expansion

>  <fragmenstein_error>  (548) 


$$$$
C67938-P7
     RDKit          3D

 39 42  0  0  0  0  0  0  0  0999 V2000
   -9.7769  -10.4613   30.9454 O   0  0  0  0  0  0  0  0  0  0  0  0
   -9.5220  -10.5658   32.1262 C   0  0  0  0  0  0  0  0  0  0  0  0
   -8.3740  -11.6442   32.7305 N   0  0  0  0  0  0  0  0  0  0  0  0
   -7.0455  -12.8850   31.8152 C   0  0  0  0  0  0  0  0  0  0  0  0
   -5.9479  -13.4662   30.2730 C   0  0  0  0  0  0  0  0  0  0  0  0
   -5.7666  -14.6586   29.5902 C   0  0  0  0  0  0  0  0  0  0  0  0
   -4.8255  -14.7347   28.1175 S   0  0  0  0  0  0  0  0  0  0  0  0
   -4.4221  -13.1098   28.4250 C   0  0  0  0  0  0  0  0  0  0  0  0
   -3.6283  -12.2847   27.8122 N   0  0  0  0  0  0  0  0  0  0  0  0
   -3.7227  -11.1480   28.5693 C   0  0  0  0  0  0  0  0  0  0  0  0
   -4.6070  -11.2978   29.6222 C   0  0  0  0  0  0  0  0  0  0  0  0
   -5.0412  -12.5933   29.5426 N   0  0  0  0  0  0  0  0  0  0  0  0
  -10.4838   -9.1779   33.3008 C   0  0  0  0  0  0  0  0  0  0  0  0
  -11.6588   -9.9054   34.2927 C   0  0  0  0  0  0  0  0  0  0  0  0
  -12.4636   -9.1668   35.0026 C   0  0  0  0  0  0  0  0  0  0  0  0
  -11.7841   -7.9388   34.9754 N   0  0  0  0  0  0  0  0  0  0  0  0
  -10.5795   -7.3018   33.9047 N   0  0  0  0  0  0  0  0  0  0  0  0
  -10.6660   -5.6974   35.0628 C   0  0  0  0  0  0  0  0  0  0  0  0
  -11.3038   -3.8323   34.7208 C   0  0  0  0  0  0  0  0  0  0  0  0
  -10.6108   -2.6702   35.4926 C   0  0  0  0  0  0  0  0  0  0  0  0
  -10.7287   -3.2319   36.8440 C   0  0  0  0  0  0  0  0  0  0  0  0
  -10.8914   -4.7734   36.6223 C   0  0  0  0  0  0  0  0  0  0  0  0
   -8.4142  -11.6151   33.7527 H   0  0  0  0  0  0  0  0  0  0  0  0
   -7.4544  -13.9388   31.4687 H   0  0  0  0  0  0  0  0  0  0  0  0
   -7.3198  -13.5262   32.6788 H   0  0  0  0  0  0  0  0  0  0  0  0
   -5.9542  -15.6425   29.9498 H   0  0  0  0  0  0  0  0  0  0  0  0
   -3.1532  -10.2623   28.3143 H   0  0  0  0  0  0  0  0  0  0  0  0
   -4.9236  -10.6221   30.4018 H   0  0  0  0  0  0  0  0  0  0  0  0
  -12.2599  -10.7666   34.1067 H   0  0  0  0  0  0  0  0  0  0  0  0
  -13.3923   -9.3257   35.5496 H   0  0  0  0  0  0  0  0  0  0  0  0
  -11.5758   -6.0860   35.3319 H   0  0  0  0  0  0  0  0  0  0  0  0
  -11.4427   -3.4484   33.7017 H   0  0  0  0  0  0  0  0  0  0  0  0
  -12.2257   -3.6322   35.2393 H   0  0  0  0  0  0  0  0  0  0  0  0
   -9.5870   -2.4117   35.2107 H   0  0  0  0  0  0  0  0  0  0  0  0
  -11.1932   -1.7446   35.4150 H   0  0  0  0  0  0  0  0  0  0  0  0
  -11.6492   -2.8559   37.3212 H   0  0  0  0  0  0  0  0  0  0  0  0
   -9.9695   -2.8844   37.5385 H   0  0  0  0  0  0  0  0  0  0  0  0
  -10.6116   -5.1095   37.5812 H   0  0  0  0  0  0  0  0  0  0  0  0
  -11.9930   -4.7181   36.6489 H   0  0  0  0  0  0  0  0  0  0  0  0
  1  2  2  0
  2  3  1  0
  3  4  1  0
  4  5  1  0
  5  6  2  0
  6  7  1  0
  7  8  1  0
  8  9  2  0
  9 10  1  0
 10 11  2  0
 11 12  1  0
  2 13  1  0
 13 14  2  0
 14 15  1  0
 15 16  2  0
 16 17  1  0
 17 18  1  0
 18 19  1  0
 19 20  1  0
 20 21  1  0
 21 22  1  0
 12  5  1  0
 17 13  1  0
 22 18  1  0
 12  8  1  0
  3 23  1  0
  4 24  1  0
  4 25  1  0
  6 26  1  0
 10 27  1  0
 11 28  1  0
 14 29  1  0
 15 30  1  0
 18 31  1  0
 19 32  1  0
 19 33  1  0
 20 34  1  0
 20 35  1  0
 21 36  1  0
 21 37  1  0
 22 38  1  0
 22 39  1  0
M  END
>  <Energy>  (549) 
1073.997098665154

>  <compound_id>  (549) 
67938

>  <target_id>  (549) 
1

>  <reference_id>  (549) 
7

>  <inspiration_ids>  (549) 
[7, 45]

>  <energy_score>  (549) 
1052.355263278806

>  <distance_score>  (549) 
10.897817227904618

>  <path>  (549) 
/opt/xchem-fragalysis-2/maxwin/BulkDock/SCRATCH/511022/C67938-P7/C67938-P7.minimised.mol

>  <scratch_subdir>  (549) 
/opt/xchem-fragalysis-2/maxwin/BulkDock/SCRATCH/511022/C67938-P7

>  <fragmenstein_runtime>  (549) 
15.046451568603516

>  <fragmenstein_outcome>  (549) 
too moved

>  <fragmenstein_mode>  (549) 
expansion

>  <fragmenstein_error>  (549) 


$$$$
C67938-P45
     RDKit          3D

 39 42  0  0  0  0  0  0  0  0999 V2000
   -7.7373  -10.9774   35.2919 O   0  0  0  0  0  0  0  0  0  0  0  0
   -8.7541  -11.4120   34.7562 C   0  0  0  0  0  0  0  0  0  0  0  0
   -8.8571  -12.7744   33.3976 N   0  0  0  0  0  0  0  0  0  0  0  0
   -7.4942  -13.9564   32.6091 C   0  0  0  0  0  0  0  0  0  0  0  0
   -6.6671  -15.8232   32.3613 C   0  0  0  0  0  0  0  0  0  0  0  0
   -5.4550  -15.9397   32.0895 C   0  0  0  0  0  0  0  0  0  0  0  0
   -5.8463  -14.1424   30.6405 S   0  0  0  0  0  0  0  0  0  0  0  0
   -5.1956  -15.1986   29.7354 C   0  0  0  0  0  0  0  0  0  0  0  0
   -4.8464  -15.2558   28.5145 N   0  0  0  0  0  0  0  0  0  0  0  0
   -5.3732  -16.4192   28.2492 C   0  0  0  0  0  0  0  0  0  0  0  0
   -5.7219  -17.0232   29.4421 C   0  0  0  0  0  0  0  0  0  0  0  0
   -5.8606  -16.0716   30.6196 N   0  0  0  0  0  0  0  0  0  0  0  0
  -10.3676  -10.6382   35.6367 C   0  0  0  0  0  0  0  0  0  0  0  0
  -10.7013  -10.7652   37.1297 C   0  0  0  0  0  0  0  0  0  0  0  0
  -12.0680  -10.7833   37.2909 C   0  0  0  0  0  0  0  0  0  0  0  0
  -12.5945  -10.5684   36.1138 N   0  0  0  0  0  0  0  0  0  0  0  0
  -11.4765   -9.6394   35.2331 N   0  0  0  0  0  0  0  0  0  0  0  0
  -11.8968   -7.6622   35.2355 C   0  0  0  0  0  0  0  0  0  0  0  0
  -13.2434   -6.1992   35.3322 C   0  0  0  0  0  0  0  0  0  0  0  0
  -12.7142   -4.9168   35.9839 C   0  0  0  0  0  0  0  0  0  0  0  0
  -11.4302   -4.9832   35.3927 C   0  0  0  0  0  0  0  0  0  0  0  0
  -11.0523   -6.4030   34.7440 C   0  0  0  0  0  0  0  0  0  0  0  0
   -9.7672  -12.9906   33.2059 H   0  0  0  0  0  0  0  0  0  0  0  0
   -8.3711  -14.5643   32.2758 H   0  0  0  0  0  0  0  0  0  0  0  0
   -7.2005  -14.1754   33.6355 H   0  0  0  0  0  0  0  0  0  0  0  0
   -4.7249  -16.1065   32.9006 H   0  0  0  0  0  0  0  0  0  0  0  0
   -5.4070  -16.7803   27.2456 H   0  0  0  0  0  0  0  0  0  0  0  0
   -6.1582  -17.9590   29.6604 H   0  0  0  0  0  0  0  0  0  0  0  0
  -10.1371  -11.2390   37.9069 H   0  0  0  0  0  0  0  0  0  0  0  0
  -12.6875  -11.0555   38.1319 H   0  0  0  0  0  0  0  0  0  0  0  0
  -12.6135   -8.0171   35.8593 H   0  0  0  0  0  0  0  0  0  0  0  0
  -13.5564   -5.8283   34.3556 H   0  0  0  0  0  0  0  0  0  0  0  0
  -14.1825   -6.3577   35.8815 H   0  0  0  0  0  0  0  0  0  0  0  0
  -13.2048   -4.0126   35.7521 H   0  0  0  0  0  0  0  0  0  0  0  0
  -12.5913   -4.6681   37.0436 H   0  0  0  0  0  0  0  0  0  0  0  0
  -11.5607   -4.1422   34.7012 H   0  0  0  0  0  0  0  0  0  0  0  0
  -10.7404   -4.6414   36.1472 H   0  0  0  0  0  0  0  0  0  0  0  0
  -11.2552   -6.4459   33.7118 H   0  0  0  0  0  0  0  0  0  0  0  0
  -10.0126   -6.4932   34.4087 H   0  0  0  0  0  0  0  0  0  0  0  0
  1  2  2  0
  2  3  1  0
  3  4  1  0
  4  5  1  0
  5  6  2  0
  6  7  1  0
  7  8  1  0
  8  9  2  0
  9 10  1  0
 10 11  2  0
 11 12  1  0
  2 13  1  0
 13 14  2  0
 14 15  1  0
 15 16  2  0
 16 17  1  0
 17 18  1  0
 18 19  1  0
 19 20  1  0
 20 21  1  0
 21 22  1  0
 12  5  1  0
 17 13  1  0
 22 18  1  0
 12  8  1  0
  3 23  1  0
  4 24  1  0
  4 25  1  0
  6 26  1  0
 10 27  1  0
 11 28  1  0
 14 29  1  0
 15 30  1  0
 18 31  1  0
 19 32  1  0
 19 33  1  0
 20 34  1  0
 20 35  1  0
 21 36  1  0
 21 37  1  0
 22 38  1  0
 22 39  1  0
M  END
>  <Energy>  (550) 
1287.5001125963784

>  <compound_id>  (550) 
67938

>  <target_id>  (550) 
1

>  <reference_id>  (550) 
45

>  <inspiration_ids>  (550) 
[7, 45]

>  <energy_score>  (550) 
1265.8582772100117

>  <distance_score>  (550) 
10.063237336090278

>  <path>  (550) 
/opt/xchem-fragalysis-2/maxwin/BulkDock/SCRATCH/511022/C67938-P45/C67938-P45.minimised.mol

>  <scratch_subdir>  (550) 
/opt/xchem-fragalysis-2/maxwin/BulkDock/SCRATCH/511022/C67938-P45

>  <fragmenstein_runtime>  (550) 
20.4335880279541

>  <fragmenstein_outcome>  (550) 
too moved

>  <fragmenstein_mode>  (550) 
expansion

>  <fragmenstein_error>  (550) 


$$$$
C67940-P7
     RDKit          3D

 34 36  0  0  0  0  0  0  0  0999 V2000
   -8.1372   -6.2053   35.1240 C   0  0  0  0  0  0  0  0  0  0  0  0
   -8.1056   -7.3928   34.3745 N   0  0  0  0  0  0  0  0  0  0  0  0
   -9.5672   -7.7774   33.5420 C   0  0  0  0  0  0  0  0  0  0  0  0
   -9.6262   -9.6714   33.8462 C   0  0  0  0  0  0  0  0  0  0  0  0
   -8.8627  -11.6685   32.8483 S   0  0  0  0  0  0  0  0  0  0  0  0
  -10.6325   -9.7973   33.1387 C   0  0  0  0  0  0  0  0  0  0  0  0
   -8.4576  -11.6503   34.2595 O   0  0  0  0  0  0  0  0  0  0  0  0
   -8.2317  -13.8402   32.6898 N   0  0  0  0  0  0  0  0  0  0  0  0
   -8.2730  -15.9372   32.5821 C   0  0  0  0  0  0  0  0  0  0  0  0
   -8.9184  -16.3883   33.5615 O   0  0  0  0  0  0  0  0  0  0  0  0
   -7.5063  -17.7202   31.3044 C   0  0  0  0  0  0  0  0  0  0  0  0
   -7.7855  -18.7635   29.3223 C   0  0  0  0  0  0  0  0  0  0  0  0
   -8.5399  -19.1232   28.1989 C   0  0  0  0  0  0  0  0  0  0  0  0
   -8.0946  -21.3474   27.3834 S   0  0  0  0  0  0  0  0  0  0  0  0
   -6.6703  -21.7921   27.8336 C   0  0  0  0  0  0  0  0  0  0  0  0
   -5.6991  -22.3669   27.2081 N   0  0  0  0  0  0  0  0  0  0  0  0
   -5.2204  -21.3672   26.4776 C   0  0  0  0  0  0  0  0  0  0  0  0
   -5.8660  -20.0311   26.8338 C   0  0  0  0  0  0  0  0  0  0  0  0
   -7.2994  -20.1632   27.8552 N   0  0  0  0  0  0  0  0  0  0  0  0
   -8.3313   -9.7684   35.4037 C   0  0  0  0  0  0  0  0  0  0  0  0
   -7.4094   -8.5914   35.3514 N   0  0  0  0  0  0  0  0  0  0  0  0
   -7.2500   -5.6237   34.9131 H   0  0  0  0  0  0  0  0  0  0  0  0
   -9.1306   -5.8270   35.2281 H   0  0  0  0  0  0  0  0  0  0  0  0
   -8.2102   -6.5340   36.1308 H   0  0  0  0  0  0  0  0  0  0  0  0
  -10.3489   -7.0719   33.4548 H   0  0  0  0  0  0  0  0  0  0  0  0
  -11.7556  -10.1864   33.4330 H   0  0  0  0  0  0  0  0  0  0  0  0
  -11.2463   -9.6567   34.3820 H   0  0  0  0  0  0  0  0  0  0  0  0
  -10.9944   -8.9245   32.4403 H   0  0  0  0  0  0  0  0  0  0  0  0
   -6.4313  -17.4006   31.1666 H   0  0  0  0  0  0  0  0  0  0  0  0
   -7.1198  -18.3148   32.1557 H   0  0  0  0  0  0  0  0  0  0  0  0
   -9.2147  -18.4849   27.6755 H   0  0  0  0  0  0  0  0  0  0  0  0
   -4.7942  -21.3650   25.4826 H   0  0  0  0  0  0  0  0  0  0  0  0
   -5.8940  -19.3583   26.0439 H   0  0  0  0  0  0  0  0  0  0  0  0
   -8.1130  -10.6037   36.0196 H   0  0  0  0  0  0  0  0  0  0  0  0
  1  2  1  0
  2  3  1  0
  3  4  2  0
  4  5  1  0
  5  6  1  0
  5  7  2  0
  5  8  2  0
  8  9  1  0
  9 10  2  0
  9 11  1  0
 11 12  1  0
 12 13  2  0
 13 14  1  0
 14 15  1  0
 15 16  2  0
 16 17  1  0
 17 18  2  0
 18 19  1  0
  4 20  1  0
 20 21  2  0
 21  2  1  0
 19 12  1  0
 19 15  1  0
  1 22  1  0
  1 23  1  0
  1 24  1  0
  3 25  1  0
  6 26  1  0
  6 27  1  0
  6 28  1  0
 11 29  1  0
 11 30  1  0
 13 31  1  0
 17 32  1  0
 18 33  1  0
 20 34  1  0
M  END
>  <Energy>  (551) 
2820.6789217457622

>  <compound_id>  (551) 
67940

>  <target_id>  (551) 
1

>  <reference_id>  (551) 
7

>  <inspiration_ids>  (551) 
[7, 45]

>  <energy_score>  (551) 
2753.423152007859

>  <distance_score>  (551) 
8.01691751740242

>  <path>  (551) 
/opt/xchem-fragalysis-2/maxwin/BulkDock/SCRATCH/511022/C67940-P7/C67940-P7.minimised.mol

>  <scratch_subdir>  (551) 
/opt/xchem-fragalysis-2/maxwin/BulkDock/SCRATCH/511022/C67940-P7

>  <fragmenstein_runtime>  (551) 
19.408076524734497

>  <fragmenstein_outcome>  (551) 
too moved

>  <fragmenstein_mode>  (551) 
expansion

>  <fragmenstein_error>  (551) 


$$$$
C67940-P45
     RDKit          3D

 34 36  0  0  0  0  0  0  0  0999 V2000
  -11.5833   -5.9884   34.7171 C   0  0  0  0  0  0  0  0  0  0  0  0
  -10.8291   -6.8235   33.4291 N   0  0  0  0  0  0  0  0  0  0  0  0
   -9.9559   -7.8057   33.5181 C   0  0  0  0  0  0  0  0  0  0  0  0
  -10.4780   -9.4849   33.0632 C   0  0  0  0  0  0  0  0  0  0  0  0
   -9.5084  -11.6524   32.4438 S   0  0  0  0  0  0  0  0  0  0  0  0
  -11.4310  -10.3131   33.6501 C   0  0  0  0  0  0  0  0  0  0  0  0
   -8.1928  -11.2794   32.7712 O   0  0  0  0  0  0  0  0  0  0  0  0
   -9.3583  -13.9549   32.4405 N   0  0  0  0  0  0  0  0  0  0  0  0
   -8.5074  -15.9324   32.3129 C   0  0  0  0  0  0  0  0  0  0  0  0
   -8.2393  -16.3044   33.4852 O   0  0  0  0  0  0  0  0  0  0  0  0
   -7.8565  -17.7020   30.8487 C   0  0  0  0  0  0  0  0  0  0  0  0
   -8.0191  -19.0669   29.0131 C   0  0  0  0  0  0  0  0  0  0  0  0
   -9.1499  -19.8692   28.2951 C   0  0  0  0  0  0  0  0  0  0  0  0
  -10.2258  -21.7326   28.7070 S   0  0  0  0  0  0  0  0  0  0  0  0
   -8.4818  -22.2235   28.1291 C   0  0  0  0  0  0  0  0  0  0  0  0
   -7.9544  -23.3975   27.9865 N   0  0  0  0  0  0  0  0  0  0  0  0
   -6.6791  -23.1290   27.7012 C   0  0  0  0  0  0  0  0  0  0  0  0
   -6.4027  -21.7835   27.7182 C   0  0  0  0  0  0  0  0  0  0  0  0
   -7.5445  -20.7764   28.0541 N   0  0  0  0  0  0  0  0  0  0  0  0
  -11.2181   -8.3750   31.5628 C   0  0  0  0  0  0  0  0  0  0  0  0
  -11.1696   -7.0360   31.8980 N   0  0  0  0  0  0  0  0  0  0  0  0
  -12.0458   -6.8000   35.2528 H   0  0  0  0  0  0  0  0  0  0  0  0
  -12.3905   -5.3144   34.4157 H   0  0  0  0  0  0  0  0  0  0  0  0
  -10.8295   -5.5540   35.3547 H   0  0  0  0  0  0  0  0  0  0  0  0
   -8.9709   -7.2840   33.4391 H   0  0  0  0  0  0  0  0  0  0  0  0
  -11.7566  -10.8824   34.7338 H   0  0  0  0  0  0  0  0  0  0  0  0
  -12.4829  -10.7648   33.5163 H   0  0  0  0  0  0  0  0  0  0  0  0
  -11.1626   -9.7901   34.6846 H   0  0  0  0  0  0  0  0  0  0  0  0
   -8.4300  -17.6216   29.4936 H   0  0  0  0  0  0  0  0  0  0  0  0
   -6.7764  -17.7682   31.0151 H   0  0  0  0  0  0  0  0  0  0  0  0
   -9.4475  -20.5675   27.4736 H   0  0  0  0  0  0  0  0  0  0  0  0
   -5.9801  -23.9203   27.4549 H   0  0  0  0  0  0  0  0  0  0  0  0
   -5.5244  -21.3372   27.3528 H   0  0  0  0  0  0  0  0  0  0  0  0
  -11.2686   -8.6930   30.4924 H   0  0  0  0  0  0  0  0  0  0  0  0
  1  2  1  0
  2  3  1  0
  3  4  2  0
  4  5  1  0
  5  6  1  0
  5  7  2  0
  5  8  2  0
  8  9  1  0
  9 10  2  0
  9 11  1  0
 11 12  1  0
 12 13  2  0
 13 14  1  0
 14 15  1  0
 15 16  2  0
 16 17  1  0
 17 18  2  0
 18 19  1  0
  4 20  1  0
 20 21  2  0
 21  2  1  0
 19 12  1  0
 19 15  1  0
  1 22  1  0
  1 23  1  0
  1 24  1  0
  3 25  1  0
  6 26  1  0
  6 27  1  0
  6 28  1  0
 11 29  1  0
 11 30  1  0
 13 31  1  0
 17 32  1  0
 18 33  1  0
 20 34  1  0
M  END
>  <Energy>  (552) 
2605.1629774019875

>  <compound_id>  (552) 
67940

>  <target_id>  (552) 
1

>  <reference_id>  (552) 
45

>  <inspiration_ids>  (552) 
[7, 45]

>  <energy_score>  (552) 
2537.9072076640937

>  <distance_score>  (552) 
7.302915012325819

>  <path>  (552) 
/opt/xchem-fragalysis-2/maxwin/BulkDock/SCRATCH/511022/C67940-P45/C67940-P45.minimised.mol

>  <scratch_subdir>  (552) 
/opt/xchem-fragalysis-2/maxwin/BulkDock/SCRATCH/511022/C67940-P45

>  <fragmenstein_runtime>  (552) 
11.706714391708374

>  <fragmenstein_outcome>  (552) 
too moved

>  <fragmenstein_mode>  (552) 
expansion

>  <fragmenstein_error>  (552) 


$$$$
C67942-P7
     RDKit          3D

 40 42  0  0  0  0  0  0  0  0999 V2000
  -21.0184   -9.1067   27.5681 C   0  0  0  0  0  0  0  0  0  0  0  0
  -20.2069   -9.4952   28.7582 N   0  0  0  0  0  0  0  0  0  0  0  0
  -19.8402   -8.0340   28.7124 C   0  0  0  0  0  0  0  0  0  0  0  0
  -19.0244  -10.2984   28.8623 C   0  0  0  0  0  0  0  0  0  0  0  0
  -18.3348  -10.7894   28.0062 O   0  0  0  0  0  0  0  0  0  0  0  0
  -18.7070  -10.5102   30.3380 C   0  0  0  0  0  0  0  0  0  0  0  0
  -18.6958  -11.8999   30.7685 N   0  0  0  0  0  0  0  0  0  0  0  0
  -18.9793  -13.0421   30.0515 C   0  0  0  0  0  0  0  0  0  0  0  0
  -18.7109  -14.1121   30.8690 C   0  0  0  0  0  0  0  0  0  0  0  0
  -18.6758  -15.4649   30.5947 N   0  0  0  0  0  0  0  0  0  0  0  0
  -19.1085  -16.2162   29.3699 C   0  0  0  0  0  0  0  0  0  0  0  0
  -18.1604  -17.4133   28.8056 C   0  0  0  0  0  0  0  0  0  0  0  0
  -17.7711  -17.3365   27.4984 C   0  0  0  0  0  0  0  0  0  0  0  0
  -17.0234  -18.3683   26.7811 C   0  0  0  0  0  0  0  0  0  0  0  0
  -16.6274  -19.4666   27.4348 C   0  0  0  0  0  0  0  0  0  0  0  0
  -16.9175  -19.5688   28.7819 N   0  0  0  0  0  0  0  0  0  0  0  0
  -16.5147  -20.5449   29.6576 C   0  0  0  0  0  0  0  0  0  0  0  0
  -17.0973  -20.2128   30.8530 C   0  0  0  0  0  0  0  0  0  0  0  0
  -17.8409  -19.0561   30.7429 N   0  0  0  0  0  0  0  0  0  0  0  0
  -17.7085  -18.6436   29.4925 C   0  0  0  0  0  0  0  0  0  0  0  0
  -18.3512  -13.4903   32.1048 C   0  0  0  0  0  0  0  0  0  0  0  0
  -18.3778  -12.1544   32.0579 N   0  0  0  0  0  0  0  0  0  0  0  0
  -21.4787  -10.0563   27.2582 H   0  0  0  0  0  0  0  0  0  0  0  0
  -20.4354   -8.8209   26.6795 H   0  0  0  0  0  0  0  0  0  0  0  0
  -21.8777   -8.4568   27.7873 H   0  0  0  0  0  0  0  0  0  0  0  0
  -19.1825   -7.8708   29.5796 H   0  0  0  0  0  0  0  0  0  0  0  0
  -20.6750   -7.3408   28.8956 H   0  0  0  0  0  0  0  0  0  0  0  0
  -19.2017   -7.7549   27.8593 H   0  0  0  0  0  0  0  0  0  0  0  0
  -19.4296   -9.9940   30.9802 H   0  0  0  0  0  0  0  0  0  0  0  0
  -17.7102  -10.0995   30.5347 H   0  0  0  0  0  0  0  0  0  0  0  0
  -19.2684  -12.9951   29.0125 H   0  0  0  0  0  0  0  0  0  0  0  0
  -18.7476  -16.0851   31.4027 H   0  0  0  0  0  0  0  0  0  0  0  0
  -19.2738  -15.4974   28.5587 H   0  0  0  0  0  0  0  0  0  0  0  0
  -20.0815  -16.6714   29.5915 H   0  0  0  0  0  0  0  0  0  0  0  0
  -18.0581  -16.4782   26.8931 H   0  0  0  0  0  0  0  0  0  0  0  0
  -16.8155  -18.2236   25.7258 H   0  0  0  0  0  0  0  0  0  0  0  0
  -16.0693  -20.2728   26.9745 H   0  0  0  0  0  0  0  0  0  0  0  0
  -15.8792  -21.3644   29.3551 H   0  0  0  0  0  0  0  0  0  0  0  0
  -17.0337  -20.7451   31.7935 H   0  0  0  0  0  0  0  0  0  0  0  0
  -18.0503  -13.9684   33.0270 H   0  0  0  0  0  0  0  0  0  0  0  0
  1  2  1  0
  2  3  1  0
  2  4  1  0
  4  5  2  0
  4  6  1  0
  6  7  1  0
  7  8  1  0
  8  9  2  0
  9 10  1  0
 10 11  1  0
 11 12  1  0
 12 13  2  0
 13 14  1  0
 14 15  2  0
 15 16  1  0
 16 17  1  0
 17 18  2  0
 18 19  1  0
 19 20  2  0
  9 21  1  0
 21 22  2  0
 22  7  1  0
 20 12  1  0
 20 16  1  0
  1 23  1  0
  1 24  1  0
  1 25  1  0
  3 26  1  0
  3 27  1  0
  3 28  1  0
  6 29  1  0
  6 30  1  0
  8 31  1  0
 10 32  1  0
 11 33  1  0
 11 34  1  0
 13 35  1  0
 14 36  1  0
 15 37  1  0
 17 38  1  0
 18 39  1  0
 21 40  1  0
M  END
>  <Energy>  (553) 
113.75260927754979

>  <compound_id>  (553) 
67942

>  <target_id>  (553) 
1

>  <reference_id>  (553) 
7

>  <inspiration_ids>  (553) 
[7, 45]

>  <energy_score>  (553) 
45.54826523599388

>  <distance_score>  (553) 
14.160569407922951

>  <path>  (553) 
/opt/xchem-fragalysis-2/maxwin/BulkDock/SCRATCH/511022/C67942-P7/C67942-P7.minimised.mol

>  <scratch_subdir>  (553) 
/opt/xchem-fragalysis-2/maxwin/BulkDock/SCRATCH/511022/C67942-P7

>  <fragmenstein_runtime>  (553) 
22.990740299224854

>  <fragmenstein_outcome>  (553) 
too moved

>  <fragmenstein_mode>  (553) 
expansion

>  <fragmenstein_error>  (553) 


$$$$
C67942-P45
     RDKit          3D

 40 42  0  0  0  0  0  0  0  0999 V2000
  -13.3392   -3.3691   37.2889 C   0  0  0  0  0  0  0  0  0  0  0  0
  -12.3912   -4.3480   36.6305 N   0  0  0  0  0  0  0  0  0  0  0  0
  -11.4341   -3.7193   37.6036 C   0  0  0  0  0  0  0  0  0  0  0  0
  -11.8011   -4.3657   35.2550 C   0  0  0  0  0  0  0  0  0  0  0  0
  -11.8725   -3.5496   34.3691 O   0  0  0  0  0  0  0  0  0  0  0  0
  -10.9408   -5.9433   34.8000 C   0  0  0  0  0  0  0  0  0  0  0  0
   -9.6710   -6.9395   33.6498 N   0  0  0  0  0  0  0  0  0  0  0  0
   -8.2253   -7.8947   33.7500 C   0  0  0  0  0  0  0  0  0  0  0  0
   -8.2312   -9.0890   32.8304 C   0  0  0  0  0  0  0  0  0  0  0  0
   -7.4813  -10.3090   32.0684 N   0  0  0  0  0  0  0  0  0  0  0  0
   -7.1116  -12.1626   32.0874 C   0  0  0  0  0  0  0  0  0  0  0  0
   -7.3273  -13.8150   30.8489 C   0  0  0  0  0  0  0  0  0  0  0  0
   -6.1851  -13.9834   30.1823 C   0  0  0  0  0  0  0  0  0  0  0  0
   -6.4831  -13.4248   28.8957 C   0  0  0  0  0  0  0  0  0  0  0  0
   -7.0897  -13.7048   27.7621 C   0  0  0  0  0  0  0  0  0  0  0  0
   -8.3202  -14.0448   28.0527 N   0  0  0  0  0  0  0  0  0  0  0  0
   -9.4113  -13.7723   27.3096 C   0  0  0  0  0  0  0  0  0  0  0  0
  -10.5233  -13.9953   28.0299 C   0  0  0  0  0  0  0  0  0  0  0  0
  -10.0674  -14.2329   29.3574 N   0  0  0  0  0  0  0  0  0  0  0  0
   -8.6845  -14.0727   29.4488 C   0  0  0  0  0  0  0  0  0  0  0  0
   -9.5224   -8.7685   32.4662 C   0  0  0  0  0  0  0  0  0  0  0  0
  -10.0074   -7.5279   32.4231 N   0  0  0  0  0  0  0  0  0  0  0  0
  -13.1500   -2.2964   37.1653 H   0  0  0  0  0  0  0  0  0  0  0  0
  -14.3338   -3.5670   36.8928 H   0  0  0  0  0  0  0  0  0  0  0  0
  -13.4904   -3.6132   38.3562 H   0  0  0  0  0  0  0  0  0  0  0  0
  -11.4679   -2.6293   37.7996 H   0  0  0  0  0  0  0  0  0  0  0  0
  -11.4017   -4.2103   38.5809 H   0  0  0  0  0  0  0  0  0  0  0  0
  -10.5253   -3.6806   37.0548 H   0  0  0  0  0  0  0  0  0  0  0  0
  -11.4990   -6.1445   33.9499 H   0  0  0  0  0  0  0  0  0  0  0  0
  -11.6502   -6.6776   35.2336 H   0  0  0  0  0  0  0  0  0  0  0  0
   -7.5337   -7.4314   34.4370 H   0  0  0  0  0  0  0  0  0  0  0  0
   -7.8882  -10.2389   31.1328 H   0  0  0  0  0  0  0  0  0  0  0  0
   -7.4604  -12.4484   33.0814 H   0  0  0  0  0  0  0  0  0  0  0  0
   -6.0914  -11.9144   31.8180 H   0  0  0  0  0  0  0  0  0  0  0  0
   -5.2542  -13.5696   30.5128 H   0  0  0  0  0  0  0  0  0  0  0  0
   -5.8980  -12.4514   28.8470 H   0  0  0  0  0  0  0  0  0  0  0  0
   -6.8548  -13.1847   26.8520 H   0  0  0  0  0  0  0  0  0  0  0  0
   -9.4857  -13.0598   26.5285 H   0  0  0  0  0  0  0  0  0  0  0  0
  -11.5132  -13.8065   27.8035 H   0  0  0  0  0  0  0  0  0  0  0  0
  -10.2009   -9.4261   32.9333 H   0  0  0  0  0  0  0  0  0  0  0  0
  1  2  1  0
  2  3  1  0
  2  4  1  0
  4  5  2  0
  4  6  1  0
  6  7  1  0
  7  8  1  0
  8  9  2  0
  9 10  1  0
 10 11  1  0
 11 12  1  0
 12 13  2  0
 13 14  1  0
 14 15  2  0
 15 16  1  0
 16 17  1  0
 17 18  2  0
 18 19  1  0
 19 20  2  0
  9 21  1  0
 21 22  2  0
 22  7  1  0
 20 12  1  0
 20 16  1  0
  1 23  1  0
  1 24  1  0
  1 25  1  0
  3 26  1  0
  3 27  1  0
  3 28  1  0
  6 29  1  0
  6 30  1  0
  8 31  1  0
 10 32  1  0
 11 33  1  0
 11 34  1  0
 13 35  1  0
 14 36  1  0
 15 37  1  0
 17 38  1  0
 18 39  1  0
 21 40  1  0
M  END
>  <Energy>  (554) 
839.61203767589404

>  <compound_id>  (554) 
67942

>  <target_id>  (554) 
1

>  <reference_id>  (554) 
45

>  <inspiration_ids>  (554) 
[7, 45]

>  <energy_score>  (554) 
771.4076936343283

>  <distance_score>  (554) 
11.012841703383002

>  <path>  (554) 
/opt/xchem-fragalysis-2/maxwin/BulkDock/SCRATCH/511022/C67942-P45/C67942-P45.minimised.mol

>  <scratch_subdir>  (554) 
/opt/xchem-fragalysis-2/maxwin/BulkDock/SCRATCH/511022/C67942-P45

>  <fragmenstein_runtime>  (554) 
20.77114248275757

>  <fragmenstein_outcome>  (554) 
too moved

>  <fragmenstein_mode>  (554) 
expansion

>  <fragmenstein_error>  (554) 


$$$$
C67943-P7
     RDKit          3D

 36 38  0  0  0  0  0  0  0  0999 V2000
  -10.8732   -3.0487   36.4285 C   0  0  0  0  0  0  0  0  0  0  0  0
  -11.0692   -4.1844   35.4385 N   0  0  0  0  0  0  0  0  0  0  0  0
  -12.2956   -4.3505   36.2834 C   0  0  0  0  0  0  0  0  0  0  0  0
  -10.2019   -5.6808   35.2202 C   0  0  0  0  0  0  0  0  0  0  0  0
   -9.3309   -6.0173   35.9861 O   0  0  0  0  0  0  0  0  0  0  0  0
  -10.2880   -6.9815   33.6328 C   0  0  0  0  0  0  0  0  0  0  0  0
   -9.7754   -8.0643   32.3325 N   0  0  0  0  0  0  0  0  0  0  0  0
  -10.1537   -9.4377   32.3462 C   0  0  0  0  0  0  0  0  0  0  0  0
   -9.9496  -10.4043   31.3070 C   0  0  0  0  0  0  0  0  0  0  0  0
   -9.3360  -10.9345   29.9243 N   0  0  0  0  0  0  0  0  0  0  0  0
   -9.1973  -12.9943   29.0118 C   0  0  0  0  0  0  0  0  0  0  0  0
   -9.5175  -14.1017   29.5314 O   0  0  0  0  0  0  0  0  0  0  0  0
   -8.7269  -13.2819   27.2428 C   0  0  0  0  0  0  0  0  0  0  0  0
   -7.7614  -13.1012   26.3179 C   0  0  0  0  0  0  0  0  0  0  0  0
   -8.0802  -13.8205   24.7142 S   0  0  0  0  0  0  0  0  0  0  0  0
   -9.4512  -14.5960   25.3646 C   0  0  0  0  0  0  0  0  0  0  0  0
  -10.2918  -15.4835   24.9091 N   0  0  0  0  0  0  0  0  0  0  0  0
  -11.2624  -15.5082   25.8742 C   0  0  0  0  0  0  0  0  0  0  0  0
  -10.9785  -14.6102   26.8862 C   0  0  0  0  0  0  0  0  0  0  0  0
   -9.7176  -14.1263   26.6136 N   0  0  0  0  0  0  0  0  0  0  0  0
  -10.3386   -9.0286   30.5342 C   0  0  0  0  0  0  0  0  0  0  0  0
  -10.1801   -7.8160   31.0655 N   0  0  0  0  0  0  0  0  0  0  0  0
  -11.6039   -2.2256   36.3783 H   0  0  0  0  0  0  0  0  0  0  0  0
  -10.5693   -3.3485   37.4419 H   0  0  0  0  0  0  0  0  0  0  0  0
   -9.9635   -2.5548   36.0554 H   0  0  0  0  0  0  0  0  0  0  0  0
  -12.1718   -4.2440   37.3708 H   0  0  0  0  0  0  0  0  0  0  0  0
  -12.9957   -3.5041   36.1102 H   0  0  0  0  0  0  0  0  0  0  0  0
  -12.9069   -5.1927   36.1214 H   0  0  0  0  0  0  0  0  0  0  0  0
   -9.1474   -7.0351   33.7126 H   0  0  0  0  0  0  0  0  0  0  0  0
  -10.8429   -7.8843   33.9603 H   0  0  0  0  0  0  0  0  0  0  0  0
  -10.8178   -9.5538   33.1648 H   0  0  0  0  0  0  0  0  0  0  0  0
   -8.9168  -10.1645   29.2993 H   0  0  0  0  0  0  0  0  0  0  0  0
   -6.8452  -12.5649   26.4570 H   0  0  0  0  0  0  0  0  0  0  0  0
  -12.1395  -16.1349   25.7733 H   0  0  0  0  0  0  0  0  0  0  0  0
  -11.5223  -14.3337   27.7771 H   0  0  0  0  0  0  0  0  0  0  0  0
  -10.6156   -9.0171   29.4835 H   0  0  0  0  0  0  0  0  0  0  0  0
  1  2  1  0
  2  3  1  0
  2  4  1  0
  4  5  2  0
  4  6  1  0
  6  7  1  0
  7  8  1  0
  8  9  2  0
  9 10  1  0
 10 11  1  0
 11 12  2  0
 11 13  1  0
 13 14  2  0
 14 15  1  0
 15 16  1  0
 16 17  2  0
 17 18  1  0
 18 19  2  0
 19 20  1  0
  9 21  1  0
 21 22  2  0
 22  7  1  0
 20 13  1  0
 20 16  1  0
  1 23  1  0
  1 24  1  0
  1 25  1  0
  3 26  1  0
  3 27  1  0
  3 28  1  0
  6 29  1  0
  6 30  1  0
  8 31  1  0
 10 32  1  0
 14 33  1  0
 18 34  1  0
 19 35  1  0
 21 36  1  0
M  END
>  <Energy>  (555) 
909.84354813468747

>  <compound_id>  (555) 
67943

>  <target_id>  (555) 
1

>  <reference_id>  (555) 
7

>  <inspiration_ids>  (555) 
[7, 45]

>  <energy_score>  (555) 
851.2508928266068

>  <distance_score>  (555) 
11.108885807306747

>  <path>  (555) 
/opt/xchem-fragalysis-2/maxwin/BulkDock/SCRATCH/511022/C67943-P7/C67943-P7.minimised.mol

>  <scratch_subdir>  (555) 
/opt/xchem-fragalysis-2/maxwin/BulkDock/SCRATCH/511022/C67943-P7

>  <fragmenstein_runtime>  (555) 
19.977817058563232

>  <fragmenstein_outcome>  (555) 
too moved

>  <fragmenstein_mode>  (555) 
expansion

>  <fragmenstein_error>  (555) 


$$$$
C67943-P45
     RDKit          3D

 36 38  0  0  0  0  0  0  0  0999 V2000
  -11.8828   -3.6393   37.1689 C   0  0  0  0  0  0  0  0  0  0  0  0
  -10.7431   -4.2644   36.4197 N   0  0  0  0  0  0  0  0  0  0  0  0
  -10.8650   -2.9153   35.6080 C   0  0  0  0  0  0  0  0  0  0  0  0
  -10.6994   -5.5671   35.3993 C   0  0  0  0  0  0  0  0  0  0  0  0
  -11.6691   -6.1749   35.0273 O   0  0  0  0  0  0  0  0  0  0  0  0
   -8.9091   -6.3479   34.8079 C   0  0  0  0  0  0  0  0  0  0  0  0
   -8.3310   -8.0555   34.3877 N   0  0  0  0  0  0  0  0  0  0  0  0
   -9.0915   -9.3758   33.6236 C   0  0  0  0  0  0  0  0  0  0  0  0
   -8.0995  -10.8291   33.6042 C   0  0  0  0  0  0  0  0  0  0  0  0
   -7.3516  -11.5245   31.9918 N   0  0  0  0  0  0  0  0  0  0  0  0
   -7.1083  -13.3294   31.3756 C   0  0  0  0  0  0  0  0  0  0  0  0
   -7.3272  -14.3356   32.0326 O   0  0  0  0  0  0  0  0  0  0  0  0
   -6.6625  -13.7641   29.4389 C   0  0  0  0  0  0  0  0  0  0  0  0
   -6.3258  -12.7482   28.5783 C   0  0  0  0  0  0  0  0  0  0  0  0
   -6.7357  -12.7643   26.5999 S   0  0  0  0  0  0  0  0  0  0  0  0
   -8.1002  -13.5745   27.0081 C   0  0  0  0  0  0  0  0  0  0  0  0
   -9.0223  -13.9202   26.1628 N   0  0  0  0  0  0  0  0  0  0  0  0
   -9.0323  -15.2244   26.3485 C   0  0  0  0  0  0  0  0  0  0  0  0
   -8.2197  -15.5091   27.4356 C   0  0  0  0  0  0  0  0  0  0  0  0
   -7.8534  -14.2627   28.1894 N   0  0  0  0  0  0  0  0  0  0  0  0
   -7.5858  -10.0596   35.0871 C   0  0  0  0  0  0  0  0  0  0  0  0
   -7.3962   -8.7114   35.2539 N   0  0  0  0  0  0  0  0  0  0  0  0
  -12.8123   -3.6398   36.5981 H   0  0  0  0  0  0  0  0  0  0  0  0
  -12.1202   -4.3086   38.0005 H   0  0  0  0  0  0  0  0  0  0  0  0
  -11.6349   -2.7242   37.7268 H   0  0  0  0  0  0  0  0  0  0  0  0
  -11.4796   -3.0695   34.7177 H   0  0  0  0  0  0  0  0  0  0  0  0
   -9.8495   -2.6097   35.3144 H   0  0  0  0  0  0  0  0  0  0  0  0
  -11.1656   -1.9847   36.1178 H   0  0  0  0  0  0  0  0  0  0  0  0
   -8.9993   -6.4619   33.7232 H   0  0  0  0  0  0  0  0  0  0  0  0
   -7.9809   -6.0128   35.2559 H   0  0  0  0  0  0  0  0  0  0  0  0
   -9.7749   -8.9970   32.8741 H   0  0  0  0  0  0  0  0  0  0  0  0
   -7.1827  -10.8829   31.2391 H   0  0  0  0  0  0  0  0  0  0  0  0
   -5.5304  -12.0999   28.9627 H   0  0  0  0  0  0  0  0  0  0  0  0
   -9.6364  -15.8652   25.7274 H   0  0  0  0  0  0  0  0  0  0  0  0
   -7.9342  -16.4275   27.8995 H   0  0  0  0  0  0  0  0  0  0  0  0
   -7.1509  -10.5984   35.9102 H   0  0  0  0  0  0  0  0  0  0  0  0
  1  2  1  0
  2  3  1  0
  2  4  1  0
  4  5  2  0
  4  6  1  0
  6  7  1  0
  7  8  1  0
  8  9  2  0
  9 10  1  0
 10 11  1  0
 11 12  2  0
 11 13  1  0
 13 14  2  0
 14 15  1  0
 15 16  1  0
 16 17  2  0
 17 18  1  0
 18 19  2  0
 19 20  1  0
  9 21  1  0
 21 22  2  0
 22  7  1  0
 20 13  1  0
 20 16  1  0
  1 23  1  0
  1 24  1  0
  1 25  1  0
  3 26  1  0
  3 27  1  0
  3 28  1  0
  6 29  1  0
  6 30  1  0
  8 31  1  0
 10 32  1  0
 14 33  1  0
 18 34  1  0
 19 35  1  0
 21 36  1  0
M  END
>  <Energy>  (556) 
829.26180815923226

>  <compound_id>  (556) 
67943

>  <target_id>  (556) 
1

>  <reference_id>  (556) 
45

>  <inspiration_ids>  (556) 
[7, 45]

>  <energy_score>  (556) 
770.6691528511335

>  <distance_score>  (556) 
11.051521904693143

>  <path>  (556) 
/opt/xchem-fragalysis-2/maxwin/BulkDock/SCRATCH/511022/C67943-P45/C67943-P45.minimised.mol

>  <scratch_subdir>  (556) 
/opt/xchem-fragalysis-2/maxwin/BulkDock/SCRATCH/511022/C67943-P45

>  <fragmenstein_runtime>  (556) 
10.348978281021118

>  <fragmenstein_outcome>  (556) 
too moved

>  <fragmenstein_mode>  (556) 
expansion

>  <fragmenstein_error>  (556) 


$$$$
C67944-P7
     RDKit          3D

 39 41  0  0  0  0  0  0  0  0999 V2000
  -10.6605   -3.8253   36.0604 C   0  0  0  0  0  0  0  0  0  0  0  0
  -10.4703   -5.3005   35.0342 N   0  0  0  0  0  0  0  0  0  0  0  0
  -11.1518   -5.7793   35.9418 C   0  0  0  0  0  0  0  0  0  0  0  0
   -8.9908   -6.3236   34.7057 C   0  0  0  0  0  0  0  0  0  0  0  0
   -7.8808   -6.2245   35.2124 O   0  0  0  0  0  0  0  0  0  0  0  0
   -9.3135   -7.5914   33.2720 C   0  0  0  0  0  0  0  0  0  0  0  0
   -9.3578   -9.2612   33.2394 N   0  0  0  0  0  0  0  0  0  0  0  0
   -9.6224  -10.5614   32.1291 C   0  0  0  0  0  0  0  0  0  0  0  0
   -8.9942  -12.0292   32.8250 C   0  0  0  0  0  0  0  0  0  0  0  0
   -9.1672  -13.9415   32.7576 N   0  0  0  0  0  0  0  0  0  0  0  0
   -8.0182  -15.2903   32.1656 C   0  0  0  0  0  0  0  0  0  0  0  0
   -7.0988  -14.7880   31.6698 O   0  0  0  0  0  0  0  0  0  0  0  0
   -7.7124  -17.5500   32.0308 C   0  0  0  0  0  0  0  0  0  0  0  0
   -8.7221  -18.8885   32.9129 C   0  0  0  0  0  0  0  0  0  0  0  0
   -9.9514  -20.1387   31.8053 C   0  0  0  0  0  0  0  0  0  0  0  0
   -9.9907  -20.4781   29.9714 C   0  0  0  0  0  0  0  0  0  0  0  0
   -8.5434  -19.3729   28.8412 C   0  0  0  0  0  0  0  0  0  0  0  0
   -7.6279  -20.3199   27.7649 N   0  0  0  0  0  0  0  0  0  0  0  0
   -7.2052  -19.3127   27.1919 C   0  0  0  0  0  0  0  0  0  0  0  0
   -7.8903  -18.0119   28.3694 C   0  0  0  0  0  0  0  0  0  0  0  0
   -7.4808  -18.4277   30.1843 N   0  0  0  0  0  0  0  0  0  0  0  0
   -8.3567  -11.0398   34.0829 C   0  0  0  0  0  0  0  0  0  0  0  0
   -8.5250   -9.7751   34.2152 N   0  0  0  0  0  0  0  0  0  0  0  0
  -11.5539   -3.3242   35.6559 H   0  0  0  0  0  0  0  0  0  0  0  0
  -10.7707   -3.9912   37.1455 H   0  0  0  0  0  0  0  0  0  0  0  0
   -9.8486   -3.0925   35.9364 H   0  0  0  0  0  0  0  0  0  0  0  0
  -12.0700   -5.1681   36.0473 H   0  0  0  0  0  0  0  0  0  0  0  0
  -11.4637   -6.6881   35.5018 H   0  0  0  0  0  0  0  0  0  0  0  0
  -10.3448   -5.7481   36.6397 H   0  0  0  0  0  0  0  0  0  0  0  0
  -10.1072   -7.4349   32.5856 H   0  0  0  0  0  0  0  0  0  0  0  0
   -8.4227   -7.3725   32.7129 H   0  0  0  0  0  0  0  0  0  0  0  0
  -10.1795  -10.2192   31.2694 H   0  0  0  0  0  0  0  0  0  0  0  0
   -9.9172  -14.3929   33.2648 H   0  0  0  0  0  0  0  0  0  0  0  0
   -9.2425  -18.6359   33.8467 H   0  0  0  0  0  0  0  0  0  0  0  0
  -10.6051  -20.6928   32.4844 H   0  0  0  0  0  0  0  0  0  0  0  0
  -10.6183  -21.2317   29.4652 H   0  0  0  0  0  0  0  0  0  0  0  0
   -6.2120  -19.4147   26.6864 H   0  0  0  0  0  0  0  0  0  0  0  0
   -7.6368  -16.9500   28.2657 H   0  0  0  0  0  0  0  0  0  0  0  0
   -7.8937  -11.2202   34.9990 H   0  0  0  0  0  0  0  0  0  0  0  0
  1  2  1  0
  2  3  1  0
  2  4  1  0
  4  5  2  0
  4  6  1  0
  6  7  1  0
  7  8  1  0
  8  9  2  0
  9 10  1  0
 10 11  1  0
 11 12  2  0
 11 13  1  0
 13 14  2  0
 14 15  1  0
 15 16  2  0
 16 17  1  0
 17 18  2  0
 18 19  1  0
 19 20  2  0
 20 21  1  0
  9 22  1  0
 22 23  2  0
 23  7  1  0
 21 13  1  0
 21 17  1  0
  1 24  1  0
  1 25  1  0
  1 26  1  0
  3 27  1  0
  3 28  1  0
  3 29  1  0
  6 30  1  0
  6 31  1  0
  8 32  1  0
 10 33  1  0
 14 34  1  0
 15 35  1  0
 16 36  1  0
 19 37  1  0
 20 38  1  0
 22 39  1  0
M  END
>  <Energy>  (557) 
2017.6216145410144

>  <compound_id>  (557) 
67944

>  <target_id>  (557) 
1

>  <reference_id>  (557) 
7

>  <inspiration_ids>  (557) 
[7, 45]

>  <energy_score>  (557) 
1934.466861940576

>  <distance_score>  (557) 
9.389468737565075

>  <path>  (557) 
/opt/xchem-fragalysis-2/maxwin/BulkDock/SCRATCH/511022/C67944-P7/C67944-P7.minimised.mol

>  <scratch_subdir>  (557) 
/opt/xchem-fragalysis-2/maxwin/BulkDock/SCRATCH/511022/C67944-P7

>  <fragmenstein_runtime>  (557) 
24.69477081298828

>  <fragmenstein_outcome>  (557) 
too moved

>  <fragmenstein_mode>  (557) 
expansion

>  <fragmenstein_error>  (557) 


$$$$
C67944-P45
     RDKit          3D

 39 41  0  0  0  0  0  0  0  0999 V2000
  -11.9918   -4.4559   36.5645 C   0  0  0  0  0  0  0  0  0  0  0  0
  -11.0879   -5.1281   35.3897 N   0  0  0  0  0  0  0  0  0  0  0  0
  -11.9447   -4.1914   34.6002 C   0  0  0  0  0  0  0  0  0  0  0  0
  -11.0277   -6.7721   34.6706 C   0  0  0  0  0  0  0  0  0  0  0  0
  -11.8969   -7.4362   35.1194 O   0  0  0  0  0  0  0  0  0  0  0  0
   -9.7634   -7.9798   33.4190 C   0  0  0  0  0  0  0  0  0  0  0  0
   -9.2739   -9.9235   33.1643 N   0  0  0  0  0  0  0  0  0  0  0  0
   -8.5668  -11.7475   33.4857 C   0  0  0  0  0  0  0  0  0  0  0  0
   -8.0408  -13.5850   32.9578 C   0  0  0  0  0  0  0  0  0  0  0  0
   -8.2738  -15.1193   31.6613 N   0  0  0  0  0  0  0  0  0  0  0  0
   -7.5610  -17.2644   31.4908 C   0  0  0  0  0  0  0  0  0  0  0  0
   -6.9553  -17.6829   32.4755 O   0  0  0  0  0  0  0  0  0  0  0  0
   -7.6463  -18.5988   29.5662 C   0  0  0  0  0  0  0  0  0  0  0  0
   -8.6199  -19.1099   28.2581 C   0  0  0  0  0  0  0  0  0  0  0  0
   -9.5820  -20.8733   27.9294 C   0  0  0  0  0  0  0  0  0  0  0  0
   -9.4638  -22.1622   28.3070 C   0  0  0  0  0  0  0  0  0  0  0  0
   -8.0859  -22.0846   28.1692 C   0  0  0  0  0  0  0  0  0  0  0  0
   -7.2679  -23.0921   28.2136 N   0  0  0  0  0  0  0  0  0  0  0  0
   -6.1753  -22.5802   27.7548 C   0  0  0  0  0  0  0  0  0  0  0  0
   -6.3649  -21.2411   27.6030 C   0  0  0  0  0  0  0  0  0  0  0  0
   -7.6896  -20.2982   28.3172 N   0  0  0  0  0  0  0  0  0  0  0  0
   -8.1623  -11.6367   32.4153 C   0  0  0  0  0  0  0  0  0  0  0  0
   -9.4469  -10.7734   31.9578 N   0  0  0  0  0  0  0  0  0  0  0  0
  -11.6171   -3.4189   36.7013 H   0  0  0  0  0  0  0  0  0  0  0  0
  -11.8934   -4.6394   37.6284 H   0  0  0  0  0  0  0  0  0  0  0  0
  -13.0740   -4.5231   36.3853 H   0  0  0  0  0  0  0  0  0  0  0  0
  -12.1043   -3.2485   35.0981 H   0  0  0  0  0  0  0  0  0  0  0  0
  -11.5402   -3.5061   33.8354 H   0  0  0  0  0  0  0  0  0  0  0  0
  -12.8053   -4.7733   34.2961 H   0  0  0  0  0  0  0  0  0  0  0  0
   -9.9493   -7.8540   32.3430 H   0  0  0  0  0  0  0  0  0  0  0  0
   -8.7354   -7.6762   33.6359 H   0  0  0  0  0  0  0  0  0  0  0  0
   -8.3325  -11.3730   34.5010 H   0  0  0  0  0  0  0  0  0  0  0  0
   -8.6707  -14.8258   30.7994 H   0  0  0  0  0  0  0  0  0  0  0  0
   -8.9451  -18.3137   27.6129 H   0  0  0  0  0  0  0  0  0  0  0  0
  -10.4018  -21.0091   27.1531 H   0  0  0  0  0  0  0  0  0  0  0  0
  -10.0562  -23.0331   28.0575 H   0  0  0  0  0  0  0  0  0  0  0  0
   -5.3195  -23.1860   27.5022 H   0  0  0  0  0  0  0  0  0  0  0  0
   -5.7590  -20.4840   27.1222 H   0  0  0  0  0  0  0  0  0  0  0  0
   -7.2220  -11.3854   31.8728 H   0  0  0  0  0  0  0  0  0  0  0  0
  1  2  1  0
  2  3  1  0
  2  4  1  0
  4  5  2  0
  4  6  1  0
  6  7  1  0
  7  8  1  0
  8  9  2  0
  9 10  1  0
 10 11  1  0
 11 12  2  0
 11 13  1  0
 13 14  2  0
 14 15  1  0
 15 16  2  0
 16 17  1  0
 17 18  2  0
 18 19  1  0
 19 20  2  0
 20 21  1  0
  9 22  1  0
 22 23  2  0
 23  7  1  0
 21 13  1  0
 21 17  1  0
  1 24  1  0
  1 25  1  0
  1 26  1  0
  3 27  1  0
  3 28  1  0
  3 29  1  0
  6 30  1  0
  6 31  1  0
  8 32  1  0
 10 33  1  0
 14 34  1  0
 15 35  1  0
 16 36  1  0
 19 37  1  0
 20 38  1  0
 22 39  1  0
M  END
>  <Energy>  (558) 
2849.2732479931642

>  <compound_id>  (558) 
67944

>  <target_id>  (558) 
1

>  <reference_id>  (558) 
45

>  <inspiration_ids>  (558) 
[7, 45]

>  <energy_score>  (558) 
2766.11849539275

>  <distance_score>  (558) 
8.89789369025904

>  <path>  (558) 
/opt/xchem-fragalysis-2/maxwin/BulkDock/SCRATCH/511022/C67944-P45/C67944-P45.minimised.mol

>  <scratch_subdir>  (558) 
/opt/xchem-fragalysis-2/maxwin/BulkDock/SCRATCH/511022/C67944-P45

>  <fragmenstein_runtime>  (558) 
14.550097942352295

>  <fragmenstein_outcome>  (558) 
too moved

>  <fragmenstein_mode>  (558) 
expansion

>  <fragmenstein_error>  (558) 


$$$$
C67946-P7
     RDKit          3D

 39 41  0  0  0  0  0  0  0  0999 V2000
  -10.8420   -4.4157   36.3807 C   0  0  0  0  0  0  0  0  0  0  0  0
  -10.0885   -5.5455   35.6585 C   0  0  0  0  0  0  0  0  0  0  0  0
  -10.6014   -6.4791   34.6539 C   0  0  0  0  0  0  0  0  0  0  0  0
   -9.5141   -7.3799   33.9440 C   0  0  0  0  0  0  0  0  0  0  0  0
   -9.8521   -8.5982   32.8592 C   0  0  0  0  0  0  0  0  0  0  0  0
  -10.8265   -8.3074   32.2776 O   0  0  0  0  0  0  0  0  0  0  0  0
   -8.9678  -10.2387   31.9767 N   0  0  0  0  0  0  0  0  0  0  0  0
   -9.3400  -11.1788   30.2672 C   0  0  0  0  0  0  0  0  0  0  0  0
   -9.3495  -11.6877   32.2219 C   0  0  0  0  0  0  0  0  0  0  0  0
   -9.0190  -13.4587   29.1945 C   0  0  0  0  0  0  0  0  0  0  0  0
   -8.1525  -15.1354   27.9088 N   0  0  0  0  0  0  0  0  0  0  0  0
   -8.0240  -17.2994   28.0517 C   0  0  0  0  0  0  0  0  0  0  0  0
   -8.4765  -17.6456   29.0482 O   0  0  0  0  0  0  0  0  0  0  0  0
   -7.1929  -19.1859   27.0217 C   0  0  0  0  0  0  0  0  0  0  0  0
   -7.5066  -20.9329   27.3196 C   0  0  0  0  0  0  0  0  0  0  0  0
   -7.3379  -22.7438   25.7671 S   0  0  0  0  0  0  0  0  0  0  0  0
   -7.1986  -20.9761   23.6699 C   0  0  0  0  0  0  0  0  0  0  0  0
   -6.2172  -21.0395   22.7557 N   0  0  0  0  0  0  0  0  0  0  0  0
   -5.5968  -19.7856   22.7017 C   0  0  0  0  0  0  0  0  0  0  0  0
   -5.7342  -18.8671   23.7558 C   0  0  0  0  0  0  0  0  0  0  0  0
   -6.7322  -19.3848   25.0955 N   0  0  0  0  0  0  0  0  0  0  0  0
   -8.3925   -6.5735   34.3339 N   0  0  0  0  0  0  0  0  0  0  0  0
   -8.6543   -5.7044   35.5237 N   0  0  0  0  0  0  0  0  0  0  0  0
  -10.4578   -3.4184   36.1362 H   0  0  0  0  0  0  0  0  0  0  0  0
  -10.8144   -4.4705   37.4691 H   0  0  0  0  0  0  0  0  0  0  0  0
  -11.8879   -4.4032   36.0777 H   0  0  0  0  0  0  0  0  0  0  0  0
  -11.4523   -7.0000   34.9145 H   0  0  0  0  0  0  0  0  0  0  0  0
   -8.1956  -10.5168   32.5348 H   0  0  0  0  0  0  0  0  0  0  0  0
  -10.0892  -10.3178   30.0097 H   0  0  0  0  0  0  0  0  0  0  0  0
  -10.2607  -11.3098   32.1467 H   0  0  0  0  0  0  0  0  0  0  0  0
   -8.5342  -11.8795   32.9233 H   0  0  0  0  0  0  0  0  0  0  0  0
   -9.6440  -12.7368   32.5714 H   0  0  0  0  0  0  0  0  0  0  0  0
   -9.7646  -13.5260   28.3423 H   0  0  0  0  0  0  0  0  0  0  0  0
   -9.4117  -14.2471   29.8746 H   0  0  0  0  0  0  0  0  0  0  0  0
   -7.8402  -14.8511   26.9994 H   0  0  0  0  0  0  0  0  0  0  0  0
   -6.6797  -21.4949   27.7643 H   0  0  0  0  0  0  0  0  0  0  0  0
   -4.9635  -19.5863   21.8433 H   0  0  0  0  0  0  0  0  0  0  0  0
   -5.3701  -17.8687   23.7642 H   0  0  0  0  0  0  0  0  0  0  0  0
   -7.4226   -6.6588   34.0426 H   0  0  0  0  0  0  0  0  0  0  0  0
  1  2  1  0
  2  3  1  0
  3  4  2  0
  4  5  1  0
  5  6  2  0
  5  7  1  0
  7  8  1  0
  8  9  1  0
  8 10  1  0
 10 11  1  0
 11 12  1  0
 12 13  2  0
 12 14  1  0
 14 15  2  0
 15 16  1  0
 16 17  1  0
 17 18  2  0
 18 19  1  0
 19 20  2  0
 20 21  1  0
  4 22  1  0
 22 23  1  0
 23  2  2  0
 21 14  1  0
 21 17  1  0
  1 24  1  0
  1 25  1  0
  1 26  1  0
  3 27  1  0
  7 28  1  0
  8 29  1  0
  9 30  1  0
  9 31  1  0
  9 32  1  0
 10 33  1  0
 10 34  1  0
 11 35  1  0
 15 36  1  0
 19 37  1  0
 20 38  1  0
 22 39  1  0
M  END
>  <Energy>  (559) 
3002.9060239820969

>  <compound_id>  (559) 
67946

>  <target_id>  (559) 
1

>  <reference_id>  (559) 
7

>  <inspiration_ids>  (559) 
[7, 45]

>  <energy_score>  (559) 
2977.105008814581

>  <distance_score>  (559) 
6.76645499478865

>  <path>  (559) 
/opt/xchem-fragalysis-2/maxwin/BulkDock/SCRATCH/511022/C67946-P7/C67946-P7.minimised.mol

>  <scratch_subdir>  (559) 
/opt/xchem-fragalysis-2/maxwin/BulkDock/SCRATCH/511022/C67946-P7

>  <fragmenstein_runtime>  (559) 
16.469536304473877

>  <fragmenstein_outcome>  (559) 
too moved

>  <fragmenstein_mode>  (559) 
expansion

>  <fragmenstein_error>  (559) 


$$$$
C67946-P45
     RDKit          3D

 39 41  0  0  0  0  0  0  0  0999 V2000
  -11.5182   -3.8865   36.0784 C   0  0  0  0  0  0  0  0  0  0  0  0
  -11.3774   -5.1735   35.3459 C   0  0  0  0  0  0  0  0  0  0  0  0
  -10.2856   -6.1609   34.6027 C   0  0  0  0  0  0  0  0  0  0  0  0
  -10.5318   -7.2933   33.6743 C   0  0  0  0  0  0  0  0  0  0  0  0
   -9.1770   -8.3881   32.9679 C   0  0  0  0  0  0  0  0  0  0  0  0
   -8.0953   -7.6222   32.8807 O   0  0  0  0  0  0  0  0  0  0  0  0
   -9.0033  -10.4943   32.3062 N   0  0  0  0  0  0  0  0  0  0  0  0
   -7.3250  -11.8857   31.5753 C   0  0  0  0  0  0  0  0  0  0  0  0
   -7.4326  -13.7527   32.3149 C   0  0  0  0  0  0  0  0  0  0  0  0
   -6.8282  -13.4796   29.7869 C   0  0  0  0  0  0  0  0  0  0  0  0
   -7.5962  -15.0538   28.4481 N   0  0  0  0  0  0  0  0  0  0  0  0
   -7.1726  -17.0488   28.3351 C   0  0  0  0  0  0  0  0  0  0  0  0
   -6.1981  -17.3315   29.0291 O   0  0  0  0  0  0  0  0  0  0  0  0
   -8.0388  -18.8199   27.7508 C   0  0  0  0  0  0  0  0  0  0  0  0
   -9.0839  -19.7820   28.2587 C   0  0  0  0  0  0  0  0  0  0  0  0
  -10.0026  -21.7682   28.4106 S   0  0  0  0  0  0  0  0  0  0  0  0
   -8.2102  -22.0936   27.9362 C   0  0  0  0  0  0  0  0  0  0  0  0
   -7.6503  -23.2637   27.9711 N   0  0  0  0  0  0  0  0  0  0  0  0
   -6.3732  -23.0075   27.7202 C   0  0  0  0  0  0  0  0  0  0  0  0
   -6.1709  -21.6632   27.5498 C   0  0  0  0  0  0  0  0  0  0  0  0
   -7.4155  -20.7024   27.6249 N   0  0  0  0  0  0  0  0  0  0  0  0
  -11.6083   -7.0036   34.9389 N   0  0  0  0  0  0  0  0  0  0  0  0
  -12.4077   -5.8586   35.0305 N   0  0  0  0  0  0  0  0  0  0  0  0
  -12.5248   -3.8116   36.5043 H   0  0  0  0  0  0  0  0  0  0  0  0
  -11.3701   -3.0350   35.4083 H   0  0  0  0  0  0  0  0  0  0  0  0
  -10.8566   -3.7522   36.9239 H   0  0  0  0  0  0  0  0  0  0  0  0
   -9.1675   -6.0279   34.7434 H   0  0  0  0  0  0  0  0  0  0  0  0
   -9.8441  -10.9574   32.5002 H   0  0  0  0  0  0  0  0  0  0  0  0
   -6.2972  -11.5439   31.8203 H   0  0  0  0  0  0  0  0  0  0  0  0
   -8.3748  -14.3766   32.2374 H   0  0  0  0  0  0  0  0  0  0  0  0
   -7.2855  -13.9038   33.3527 H   0  0  0  0  0  0  0  0  0  0  0  0
   -6.9092  -14.3602   31.6098 H   0  0  0  0  0  0  0  0  0  0  0  0
   -5.9475  -14.0066   30.1864 H   0  0  0  0  0  0  0  0  0  0  0  0
   -6.4192  -12.9385   28.9032 H   0  0  0  0  0  0  0  0  0  0  0  0
   -8.3433  -14.8593   27.7974 H   0  0  0  0  0  0  0  0  0  0  0  0
   -9.5115  -20.4982   27.4446 H   0  0  0  0  0  0  0  0  0  0  0  0
   -5.6379  -23.7966   27.6162 H   0  0  0  0  0  0  0  0  0  0  0  0
   -5.3525  -21.2153   27.0656 H   0  0  0  0  0  0  0  0  0  0  0  0
  -12.0801   -7.8150   35.2442 H   0  0  0  0  0  0  0  0  0  0  0  0
  1  2  1  0
  2  3  1  0
  3  4  2  0
  4  5  1  0
  5  6  2  0
  5  7  1  0
  7  8  1  0
  8  9  1  0
  8 10  1  0
 10 11  1  0
 11 12  1  0
 12 13  2  0
 12 14  1  0
 14 15  2  0
 15 16  1  0
 16 17  1  0
 17 18  2  0
 18 19  1  0
 19 20  2  0
 20 21  1  0
  4 22  1  0
 22 23  1  0
 23  2  2  0
 21 14  1  0
 21 17  1  0
  1 24  1  0
  1 25  1  0
  1 26  1  0
  3 27  1  0
  7 28  1  0
  8 29  1  0
  9 30  1  0
  9 31  1  0
  9 32  1  0
 10 33  1  0
 10 34  1  0
 11 35  1  0
 15 36  1  0
 19 37  1  0
 20 38  1  0
 22 39  1  0
M  END
>  <Energy>  (560) 
2168.4448939879462

>  <compound_id>  (560) 
67946

>  <target_id>  (560) 
1

>  <reference_id>  (560) 
45

>  <inspiration_ids>  (560) 
[7, 45]

>  <energy_score>  (560) 
2142.6438788204987

>  <distance_score>  (560) 
6.177204146281193

>  <path>  (560) 
/opt/xchem-fragalysis-2/maxwin/BulkDock/SCRATCH/511022/C67946-P45/C67946-P45.minimised.mol

>  <scratch_subdir>  (560) 
/opt/xchem-fragalysis-2/maxwin/BulkDock/SCRATCH/511022/C67946-P45

>  <fragmenstein_runtime>  (560) 
14.770997285842896

>  <fragmenstein_outcome>  (560) 
too moved

>  <fragmenstein_mode>  (560) 
expansion

>  <fragmenstein_error>  (560) 


$$$$
C67947-P7
     RDKit          3D

 42 44  0  0  0  0  0  0  0  0999 V2000
  -15.3632  -11.4175   34.5547 C   0  0  0  0  0  0  0  0  0  0  0  0
  -14.5541  -12.6199   34.0220 C   0  0  0  0  0  0  0  0  0  0  0  0
  -14.8330  -13.9546   34.5359 N   0  0  0  0  0  0  0  0  0  0  0  0
  -15.7640  -13.8959   35.5283 N   0  0  0  0  0  0  0  0  0  0  0  0
  -15.8575  -15.1122   36.0173 C   0  0  0  0  0  0  0  0  0  0  0  0
  -14.9497  -15.9671   35.4010 C   0  0  0  0  0  0  0  0  0  0  0  0
  -14.2620  -15.2719   34.3724 C   0  0  0  0  0  0  0  0  0  0  0  0
  -13.4988  -16.1914   33.3322 C   0  0  0  0  0  0  0  0  0  0  0  0
  -13.4814  -17.3422   33.7004 O   0  0  0  0  0  0  0  0  0  0  0  0
  -13.0357  -15.5804   32.0725 N   0  0  0  0  0  0  0  0  0  0  0  0
  -12.4151  -16.2889   30.6086 C   0  0  0  0  0  0  0  0  0  0  0  0
  -12.0513  -15.0253   29.8918 C   0  0  0  0  0  0  0  0  0  0  0  0
  -12.2590  -17.8141   29.3133 C   0  0  0  0  0  0  0  0  0  0  0  0
  -12.7744  -19.6366   29.2338 N   0  0  0  0  0  0  0  0  0  0  0  0
  -11.9802  -20.8799   29.3912 C   0  0  0  0  0  0  0  0  0  0  0  0
  -10.8288  -21.0349   29.6886 O   0  0  0  0  0  0  0  0  0  0  0  0
  -12.6705  -22.1724   29.0268 C   0  0  0  0  0  0  0  0  0  0  0  0
  -12.1483  -23.2567   29.6593 C   0  0  0  0  0  0  0  0  0  0  0  0
  -11.8030  -24.2491   28.7683 N   0  0  0  0  0  0  0  0  0  0  0  0
  -11.0739  -25.3999   28.8057 C   0  0  0  0  0  0  0  0  0  0  0  0
  -10.9834  -25.7815   27.4785 C   0  0  0  0  0  0  0  0  0  0  0  0
  -11.6175  -24.8904   26.6378 N   0  0  0  0  0  0  0  0  0  0  0  0
  -12.0961  -24.0027   27.4637 C   0  0  0  0  0  0  0  0  0  0  0  0
  -12.9138  -22.4869   27.2802 S   0  0  0  0  0  0  0  0  0  0  0  0
  -15.2388  -11.3014   35.6365 H   0  0  0  0  0  0  0  0  0  0  0  0
  -15.0186  -10.4958   34.0746 H   0  0  0  0  0  0  0  0  0  0  0  0
  -16.4299  -11.5375   34.3389 H   0  0  0  0  0  0  0  0  0  0  0  0
  -14.7083  -12.6555   32.9479 H   0  0  0  0  0  0  0  0  0  0  0  0
  -13.5431  -12.4152   34.3432 H   0  0  0  0  0  0  0  0  0  0  0  0
  -16.5674  -15.3230   36.8070 H   0  0  0  0  0  0  0  0  0  0  0  0
  -14.8426  -17.0252   35.6097 H   0  0  0  0  0  0  0  0  0  0  0  0
  -13.2824  -14.6034   32.0705 H   0  0  0  0  0  0  0  0  0  0  0  0
  -13.3958  -16.0385   30.2661 H   0  0  0  0  0  0  0  0  0  0  0  0
  -11.9453  -14.9573   28.7973 H   0  0  0  0  0  0  0  0  0  0  0  0
  -11.0730  -14.7188   30.1725 H   0  0  0  0  0  0  0  0  0  0  0  0
  -12.9018  -14.4180   30.1699 H   0  0  0  0  0  0  0  0  0  0  0  0
  -12.8340  -17.4152   28.5545 H   0  0  0  0  0  0  0  0  0  0  0  0
  -11.2942  -17.9694   28.9390 H   0  0  0  0  0  0  0  0  0  0  0  0
  -13.7743  -19.8906   29.0513 H   0  0  0  0  0  0  0  0  0  0  0  0
  -11.7061  -23.2749   30.6460 H   0  0  0  0  0  0  0  0  0  0  0  0
  -10.6804  -25.8235   29.7185 H   0  0  0  0  0  0  0  0  0  0  0  0
  -10.4787  -26.6453   27.0727 H   0  0  0  0  0  0  0  0  0  0  0  0
  1  2  1  0
  2  3  1  0
  3  4  1  0
  4  5  2  0
  5  6  1  0
  6  7  2  0
  7  8  1  0
  8  9  2  0
  8 10  1  0
 10 11  1  0
 11 12  1  0
 11 13  1  0
 13 14  1  0
 14 15  1  0
 15 16  2  0
 15 17  1  0
 17 18  2  0
 18 19  1  0
 19 20  1  0
 20 21  2  0
 21 22  1  0
 22 23  2  0
 23 24  1  0
  7  3  1  0
 24 17  1  0
 23 19  1  0
  1 25  1  0
  1 26  1  0
  1 27  1  0
  2 28  1  0
  2 29  1  0
  5 30  1  0
  6 31  1  0
 10 32  1  0
 11 33  1  0
 12 34  1  0
 12 35  1  0
 12 36  1  0
 13 37  1  0
 13 38  1  0
 14 39  1  0
 18 40  1  0
 20 41  1  0
 21 42  1  0
M  END
>  <Energy>  (561) 
284.78085037326485

>  <compound_id>  (561) 
67947

>  <target_id>  (561) 
1

>  <reference_id>  (561) 
7

>  <inspiration_ids>  (561) 
[7, 45]

>  <energy_score>  (561) 
247.7097814772918

>  <distance_score>  (561) 
10.862197366665852

>  <path>  (561) 
/opt/xchem-fragalysis-2/maxwin/BulkDock/SCRATCH/511022/C67947-P7/C67947-P7.minimised.mol

>  <scratch_subdir>  (561) 
/opt/xchem-fragalysis-2/maxwin/BulkDock/SCRATCH/511022/C67947-P7

>  <fragmenstein_runtime>  (561) 
18.635059595108032

>  <fragmenstein_outcome>  (561) 
too moved

>  <fragmenstein_mode>  (561) 
expansion

>  <fragmenstein_error>  (561) 


$$$$
C67947-P45
     RDKit          3D

 42 44  0  0  0  0  0  0  0  0999 V2000
  -13.9109   -9.4412   39.3852 C   0  0  0  0  0  0  0  0  0  0  0  0
  -13.9876  -10.6624   38.4696 C   0  0  0  0  0  0  0  0  0  0  0  0
  -15.2838  -10.8654   37.8403 N   0  0  0  0  0  0  0  0  0  0  0  0
  -15.9826   -9.7542   37.4919 N   0  0  0  0  0  0  0  0  0  0  0  0
  -16.9955  -10.2194   36.7730 C   0  0  0  0  0  0  0  0  0  0  0  0
  -16.9720  -11.6178   36.6728 C   0  0  0  0  0  0  0  0  0  0  0  0
  -15.8867  -12.0530   37.4242 C   0  0  0  0  0  0  0  0  0  0  0  0
  -15.4905  -13.4411   37.7818 C   0  0  0  0  0  0  0  0  0  0  0  0
  -15.0937  -13.6358   38.8954 O   0  0  0  0  0  0  0  0  0  0  0  0
  -15.7206  -14.3651   36.6842 N   0  0  0  0  0  0  0  0  0  0  0  0
  -15.4456  -15.8240   36.5612 C   0  0  0  0  0  0  0  0  0  0  0  0
  -15.9979  -16.5918   37.7579 C   0  0  0  0  0  0  0  0  0  0  0  0
  -13.9446  -16.1433   36.3350 C   0  0  0  0  0  0  0  0  0  0  0  0
  -13.4969  -17.4710   35.8852 N   0  0  0  0  0  0  0  0  0  0  0  0
  -12.2308  -18.1421   36.0390 C   0  0  0  0  0  0  0  0  0  0  0  0
  -11.2443  -17.8223   36.6420 O   0  0  0  0  0  0  0  0  0  0  0  0
  -12.0954  -19.4450   35.2573 C   0  0  0  0  0  0  0  0  0  0  0  0
  -10.8980  -20.0405   35.0384 C   0  0  0  0  0  0  0  0  0  0  0  0
  -11.0210  -21.2152   34.3364 N   0  0  0  0  0  0  0  0  0  0  0  0
  -10.2092  -22.2246   33.9187 C   0  0  0  0  0  0  0  0  0  0  0  0
  -11.0543  -23.0799   33.2278 C   0  0  0  0  0  0  0  0  0  0  0  0
  -12.3617  -22.6264   33.2441 N   0  0  0  0  0  0  0  0  0  0  0  0
  -12.2881  -21.5379   33.9609 C   0  0  0  0  0  0  0  0  0  0  0  0
  -13.4390  -20.3790   34.5877 S   0  0  0  0  0  0  0  0  0  0  0  0
  -12.8984   -9.3364   39.7873 H   0  0  0  0  0  0  0  0  0  0  0  0
  -14.6023   -9.5510   40.2276 H   0  0  0  0  0  0  0  0  0  0  0  0
  -14.1699   -8.5158   38.8671 H   0  0  0  0  0  0  0  0  0  0  0  0
  -13.7503  -11.5541   39.0524 H   0  0  0  0  0  0  0  0  0  0  0  0
  -13.2609  -10.5729   37.6563 H   0  0  0  0  0  0  0  0  0  0  0  0
  -17.7165   -9.5258   36.3608 H   0  0  0  0  0  0  0  0  0  0  0  0
  -17.7021  -12.2442   36.1804 H   0  0  0  0  0  0  0  0  0  0  0  0
  -15.9796  -13.8394   35.8586 H   0  0  0  0  0  0  0  0  0  0  0  0
  -15.9993  -16.1431   35.6718 H   0  0  0  0  0  0  0  0  0  0  0  0
  -15.4700  -16.3308   38.6809 H   0  0  0  0  0  0  0  0  0  0  0  0
  -17.0594  -16.3664   37.9073 H   0  0  0  0  0  0  0  0  0  0  0  0
  -15.8998  -17.6718   37.6075 H   0  0  0  0  0  0  0  0  0  0  0  0
  -13.5657  -15.4584   35.5685 H   0  0  0  0  0  0  0  0  0  0  0  0
  -13.3921  -15.9438   37.2572 H   0  0  0  0  0  0  0  0  0  0  0  0
  -14.1296  -18.0738   35.3732 H   0  0  0  0  0  0  0  0  0  0  0  0
   -9.9300  -19.6876   35.3639 H   0  0  0  0  0  0  0  0  0  0  0  0
   -9.1494  -22.2480   34.1279 H   0  0  0  0  0  0  0  0  0  0  0  0
  -10.7916  -24.0031   32.7256 H   0  0  0  0  0  0  0  0  0  0  0  0
  1  2  1  0
  2  3  1  0
  3  4  1  0
  4  5  2  0
  5  6  1  0
  6  7  2  0
  7  8  1  0
  8  9  2  0
  8 10  1  0
 10 11  1  0
 11 12  1  0
 11 13  1  0
 13 14  1  0
 14 15  1  0
 15 16  2  0
 15 17  1  0
 17 18  2  0
 18 19  1  0
 19 20  1  0
 20 21  2  0
 21 22  1  0
 22 23  2  0
 23 24  1  0
  7  3  1  0
 24 17  1  0
 23 19  1  0
  1 25  1  0
  1 26  1  0
  1 27  1  0
  2 28  1  0
  2 29  1  0
  5 30  1  0
  6 31  1  0
 10 32  1  0
 11 33  1  0
 12 34  1  0
 12 35  1  0
 12 36  1  0
 13 37  1  0
 13 38  1  0
 14 39  1  0
 18 40  1  0
 20 41  1  0
 21 42  1  0
M  END
>  <Energy>  (562) 
8.6302261084316232

>  <compound_id>  (562) 
67947

>  <target_id>  (562) 
1

>  <reference_id>  (562) 
45

>  <inspiration_ids>  (562) 
[7, 45]

>  <energy_score>  (562) 
-28.440842787547126

>  <distance_score>  (562) 
11.35697302222742

>  <path>  (562) 
/opt/xchem-fragalysis-2/maxwin/BulkDock/SCRATCH/511022/C67947-P45/C67947-P45.minimised.mol

>  <scratch_subdir>  (562) 
/opt/xchem-fragalysis-2/maxwin/BulkDock/SCRATCH/511022/C67947-P45

>  <fragmenstein_runtime>  (562) 
27.75499701499939

>  <fragmenstein_outcome>  (562) 
too moved

>  <fragmenstein_mode>  (562) 
expansion

>  <fragmenstein_error>  (562) 


$$$$
C67948-P7
     RDKit          3D

 39 41  0  0  0  0  0  0  0  0999 V2000
   -7.8129  -16.3372   34.6784 C   0  0  0  0  0  0  0  0  0  0  0  0
   -7.7658  -15.9673   33.1376 C   0  0  0  0  0  0  0  0  0  0  0  0
   -6.7495  -17.7252   32.4018 C   0  0  0  0  0  0  0  0  0  0  0  0
   -6.7205  -19.1692   30.9677 N   0  0  0  0  0  0  0  0  0  0  0  0
   -7.1139  -21.2087   31.0622 C   0  0  0  0  0  0  0  0  0  0  0  0
   -7.3027  -21.7265   32.1809 O   0  0  0  0  0  0  0  0  0  0  0  0
   -7.3644  -22.3206   28.9099 C   0  0  0  0  0  0  0  0  0  0  0  0
   -7.1015  -23.5994   28.4445 C   0  0  0  0  0  0  0  0  0  0  0  0
   -8.4433  -24.8106   28.9355 C   0  0  0  0  0  0  0  0  0  0  0  0
   -9.6124  -24.8797   28.3288 C   0  0  0  0  0  0  0  0  0  0  0  0
   -9.7970  -23.7493   27.5538 C   0  0  0  0  0  0  0  0  0  0  0  0
  -10.9522  -23.4851   26.9762 N   0  0  0  0  0  0  0  0  0  0  0  0
  -11.3985  -22.3948   27.6261 C   0  0  0  0  0  0  0  0  0  0  0  0
  -10.3909  -21.8180   28.3547 C   0  0  0  0  0  0  0  0  0  0  0  0
   -8.9455  -22.4555   27.9858 N   0  0  0  0  0  0  0  0  0  0  0  0
   -8.6443  -14.2943   32.3472 N   0  0  0  0  0  0  0  0  0  0  0  0
   -8.8790  -12.3774   33.0340 C   0  0  0  0  0  0  0  0  0  0  0  0
   -8.5242  -12.1712   34.1152 O   0  0  0  0  0  0  0  0  0  0  0  0
   -9.4861  -10.6372   32.2544 C   0  0  0  0  0  0  0  0  0  0  0  0
  -10.6268   -9.5628   33.2614 N   0  0  0  0  0  0  0  0  0  0  0  0
  -11.1673   -8.8639   32.3552 N   0  0  0  0  0  0  0  0  0  0  0  0
  -10.3646   -7.9035   32.6387 C   0  0  0  0  0  0  0  0  0  0  0  0
   -9.6927   -8.9437   33.1739 C   0  0  0  0  0  0  0  0  0  0  0  0
   -8.5264   -7.1407   33.3558 Cl  0  0  0  0  0  0  0  0  0  0  0  0
   -8.8336  -16.3514   35.0843 H   0  0  0  0  0  0  0  0  0  0  0  0
   -7.1912  -15.6876   35.2756 H   0  0  0  0  0  0  0  0  0  0  0  0
   -7.4595  -17.3550   34.8531 H   0  0  0  0  0  0  0  0  0  0  0  0
   -8.7522  -16.3964   32.9848 H   0  0  0  0  0  0  0  0  0  0  0  0
   -6.9247  -18.3964   33.2451 H   0  0  0  0  0  0  0  0  0  0  0  0
   -5.7351  -17.3368   32.4209 H   0  0  0  0  0  0  0  0  0  0  0  0
   -6.6817  -18.8876   30.0174 H   0  0  0  0  0  0  0  0  0  0  0  0
   -6.1974  -24.1169   28.7250 H   0  0  0  0  0  0  0  0  0  0  0  0
   -8.3898  -25.4011   29.8353 H   0  0  0  0  0  0  0  0  0  0  0  0
  -10.4214  -25.5488   28.5874 H   0  0  0  0  0  0  0  0  0  0  0  0
  -12.4320  -22.0844   27.5801 H   0  0  0  0  0  0  0  0  0  0  0  0
  -10.4306  -21.0881   29.1403 H   0  0  0  0  0  0  0  0  0  0  0  0
   -9.0590  -14.3729   31.4396 H   0  0  0  0  0  0  0  0  0  0  0  0
  -11.1897  -10.0509   33.9719 H   0  0  0  0  0  0  0  0  0  0  0  0
  -10.2947   -7.2558   31.8050 H   0  0  0  0  0  0  0  0  0  0  0  0
  1  2  1  0
  2  3  1  0
  3  4  1  0
  4  5  1  0
  5  6  2  0
  5  7  1  0
  7  8  2  0
  8  9  1  0
  9 10  2  0
 10 11  1  0
 11 12  2  0
 12 13  1  0
 13 14  2  0
 14 15  1  0
  2 16  1  0
 16 17  1  0
 17 18  2  0
 17 19  1  0
 19 20  1  0
 20 21  1  0
 21 22  2  0
 22 23  1  0
 23 24  1  0
 15  7  1  0
 23 19  2  0
 15 11  1  0
  1 25  1  0
  1 26  1  0
  1 27  1  0
  2 28  1  0
  3 29  1  0
  3 30  1  0
  4 31  1  0
  8 32  1  0
  9 33  1  0
 10 34  1  0
 13 35  1  0
 14 36  1  0
 16 37  1  0
 20 38  1  0
 22 39  1  0
M  END
>  <Energy>  (563) 
1825.9205960955005

>  <compound_id>  (563) 
67948

>  <target_id>  (563) 
1

>  <reference_id>  (563) 
7

>  <inspiration_ids>  (563) 
[7, 45]

>  <energy_score>  (563) 
1806.5164735622827

>  <distance_score>  (563) 
7.097432256437442

>  <path>  (563) 
/opt/xchem-fragalysis-2/maxwin/BulkDock/SCRATCH/511022/C67948-P7/C67948-P7.minimised.mol

>  <scratch_subdir>  (563) 
/opt/xchem-fragalysis-2/maxwin/BulkDock/SCRATCH/511022/C67948-P7

>  <fragmenstein_runtime>  (563) 
24.718862295150757

>  <fragmenstein_outcome>  (563) 
too moved

>  <fragmenstein_mode>  (563) 
expansion

>  <fragmenstein_error>  (563) 


$$$$
C67948-P45
     RDKit          3D

 39 41  0  0  0  0  0  0  0  0999 V2000
   -7.2011  -17.8487   34.2284 C   0  0  0  0  0  0  0  0  0  0  0  0
   -6.7639  -17.4740   32.7132 C   0  0  0  0  0  0  0  0  0  0  0  0
   -6.1984  -19.5524   32.3572 C   0  0  0  0  0  0  0  0  0  0  0  0
   -7.2394  -21.1964   31.6485 N   0  0  0  0  0  0  0  0  0  0  0  0
   -7.1070  -22.3970   29.7084 C   0  0  0  0  0  0  0  0  0  0  0  0
   -6.2586  -22.1514   28.7501 O   0  0  0  0  0  0  0  0  0  0  0  0
   -8.1353  -23.8911   29.1959 C   0  0  0  0  0  0  0  0  0  0  0  0
   -7.2746  -24.5930   28.3981 C   0  0  0  0  0  0  0  0  0  0  0  0
   -7.6877  -25.6855   27.5294 C   0  0  0  0  0  0  0  0  0  0  0  0
   -8.9802  -25.9789   27.3612 C   0  0  0  0  0  0  0  0  0  0  0  0
   -9.9471  -25.1092   27.9105 C   0  0  0  0  0  0  0  0  0  0  0  0
  -11.2432  -25.0857   27.6990 N   0  0  0  0  0  0  0  0  0  0  0  0
  -11.6675  -23.9009   28.2104 C   0  0  0  0  0  0  0  0  0  0  0  0
  -10.6252  -23.2086   28.7727 C   0  0  0  0  0  0  0  0  0  0  0  0
   -9.5122  -24.0361   28.7099 N   0  0  0  0  0  0  0  0  0  0  0  0
   -7.8360  -15.7771   33.1929 N   0  0  0  0  0  0  0  0  0  0  0  0
   -7.7739  -13.9221   32.5411 C   0  0  0  0  0  0  0  0  0  0  0  0
   -7.0127  -13.7737   31.6241 O   0  0  0  0  0  0  0  0  0  0  0  0
   -8.7000  -12.0686   32.9884 C   0  0  0  0  0  0  0  0  0  0  0  0
   -9.6620  -10.9219   32.0064 N   0  0  0  0  0  0  0  0  0  0  0  0
  -10.8398   -9.9182   33.0403 N   0  0  0  0  0  0  0  0  0  0  0  0
  -10.1668   -8.8994   33.0359 C   0  0  0  0  0  0  0  0  0  0  0  0
   -9.1223  -10.2938   32.3729 C   0  0  0  0  0  0  0  0  0  0  0  0
   -9.3315   -7.9869   33.2361 Cl  0  0  0  0  0  0  0  0  0  0  0  0
   -8.2844  -18.0037   34.2357 H   0  0  0  0  0  0  0  0  0  0  0  0
   -6.7602  -18.7182   34.6983 H   0  0  0  0  0  0  0  0  0  0  0  0
   -6.9743  -17.0293   34.9193 H   0  0  0  0  0  0  0  0  0  0  0  0
   -5.7753  -17.0109   32.7829 H   0  0  0  0  0  0  0  0  0  0  0  0
   -5.1441  -19.8206   32.4817 H   0  0  0  0  0  0  0  0  0  0  0  0
   -6.4129  -19.9157   33.3836 H   0  0  0  0  0  0  0  0  0  0  0  0
   -7.9118  -21.6030   32.3074 H   0  0  0  0  0  0  0  0  0  0  0  0
   -6.2081  -24.3687   28.3603 H   0  0  0  0  0  0  0  0  0  0  0  0
   -6.9149  -26.2840   27.0519 H   0  0  0  0  0  0  0  0  0  0  0  0
   -9.3064  -26.8101   26.7468 H   0  0  0  0  0  0  0  0  0  0  0  0
  -12.6992  -23.5856   28.1191 H   0  0  0  0  0  0  0  0  0  0  0  0
  -10.6104  -22.2162   29.1965 H   0  0  0  0  0  0  0  0  0  0  0  0
   -8.4321  -15.7985   34.0142 H   0  0  0  0  0  0  0  0  0  0  0  0
   -9.8934  -10.8340   30.9532 H   0  0  0  0  0  0  0  0  0  0  0  0
  -10.7008   -7.9669   32.0524 H   0  0  0  0  0  0  0  0  0  0  0  0
  1  2  1  0
  2  3  1  0
  3  4  1  0
  4  5  1  0
  5  6  2  0
  5  7  1  0
  7  8  2  0
  8  9  1  0
  9 10  2  0
 10 11  1  0
 11 12  2  0
 12 13  1  0
 13 14  2  0
 14 15  1  0
  2 16  1  0
 16 17  1  0
 17 18  2  0
 17 19  1  0
 19 20  1  0
 20 21  1  0
 21 22  2  0
 22 23  1  0
 23 24  1  0
 15  7  1  0
 23 19  2  0
 15 11  1  0
  1 25  1  0
  1 26  1  0
  1 27  1  0
  2 28  1  0
  3 29  1  0
  3 30  1  0
  4 31  1  0
  8 32  1  0
  9 33  1  0
 10 34  1  0
 13 35  1  0
 14 36  1  0
 16 37  1  0
 20 38  1  0
 22 39  1  0
M  END
>  <Energy>  (564) 
2094.4751597083095

>  <compound_id>  (564) 
67948

>  <target_id>  (564) 
1

>  <reference_id>  (564) 
45

>  <inspiration_ids>  (564) 
[7, 45]

>  <energy_score>  (564) 
2075.071037175127

>  <distance_score>  (564) 
7.565533765217571

>  <path>  (564) 
/opt/xchem-fragalysis-2/maxwin/BulkDock/SCRATCH/511022/C67948-P45/C67948-P45.minimised.mol

>  <scratch_subdir>  (564) 
/opt/xchem-fragalysis-2/maxwin/BulkDock/SCRATCH/511022/C67948-P45

>  <fragmenstein_runtime>  (564) 
25.378628969192505

>  <fragmenstein_outcome>  (564) 
too moved

>  <fragmenstein_mode>  (564) 
expansion

>  <fragmenstein_error>  (564) 


$$$$
C67949-P7
     RDKit          3D

 42 44  0  0  0  0  0  0  0  0999 V2000
  -11.9528  -23.2959   31.1668 C   0  0  0  0  0  0  0  0  0  0  0  0
  -11.7443  -23.4446   32.6725 C   0  0  0  0  0  0  0  0  0  0  0  0
  -10.4955  -24.5124   33.0071 C   0  0  0  0  0  0  0  0  0  0  0  0
   -9.0644  -24.5094   32.5043 N   0  0  0  0  0  0  0  0  0  0  0  0
   -8.4728  -25.0537   31.2607 C   0  0  0  0  0  0  0  0  0  0  0  0
   -8.9988  -25.5634   30.3055 O   0  0  0  0  0  0  0  0  0  0  0  0
   -6.5923  -24.8232   31.0087 C   0  0  0  0  0  0  0  0  0  0  0  0
   -5.7302  -24.2996   31.8840 C   0  0  0  0  0  0  0  0  0  0  0  0
   -4.5241  -23.5349   31.5149 C   0  0  0  0  0  0  0  0  0  0  0  0
   -4.0660  -23.3765   30.2636 C   0  0  0  0  0  0  0  0  0  0  0  0
   -4.5831  -23.9968   29.0424 N   0  0  0  0  0  0  0  0  0  0  0  0
   -4.5770  -23.5368   27.7878 C   0  0  0  0  0  0  0  0  0  0  0  0
   -5.7811  -23.0691   27.3897 C   0  0  0  0  0  0  0  0  0  0  0  0
   -6.6977  -23.5609   28.2908 N   0  0  0  0  0  0  0  0  0  0  0  0
   -6.0361  -24.3923   29.2076 C   0  0  0  0  0  0  0  0  0  0  0  0
  -11.9987  -22.0846   33.3369 N   0  0  0  0  0  0  0  0  0  0  0  0
  -13.0240  -21.6620   34.3361 C   0  0  0  0  0  0  0  0  0  0  0  0
  -13.8495  -22.3050   34.9224 O   0  0  0  0  0  0  0  0  0  0  0  0
  -13.0278  -20.1534   34.6843 C   0  0  0  0  0  0  0  0  0  0  0  0
  -12.1493  -19.1201   34.3790 C   0  0  0  0  0  0  0  0  0  0  0  0
  -12.5956  -17.9172   34.9585 C   0  0  0  0  0  0  0  0  0  0  0  0
  -13.7512  -18.0963   35.5699 N   0  0  0  0  0  0  0  0  0  0  0  0
  -13.9548  -19.4416   35.4701 N   0  0  0  0  0  0  0  0  0  0  0  0
  -15.1147  -19.9423   36.1546 C   0  0  0  0  0  0  0  0  0  0  0  0
  -11.7778  -24.2384   30.6396 H   0  0  0  0  0  0  0  0  0  0  0  0
  -12.9821  -22.9824   30.9569 H   0  0  0  0  0  0  0  0  0  0  0  0
  -11.3049  -22.5276   30.7436 H   0  0  0  0  0  0  0  0  0  0  0  0
  -12.6094  -24.0190   33.0351 H   0  0  0  0  0  0  0  0  0  0  0  0
  -10.8721  -25.4532   32.5787 H   0  0  0  0  0  0  0  0  0  0  0  0
  -10.4570  -24.7102   34.0791 H   0  0  0  0  0  0  0  0  0  0  0  0
   -8.3375  -24.0826   33.0559 H   0  0  0  0  0  0  0  0  0  0  0  0
   -5.7380  -24.9466   32.7845 H   0  0  0  0  0  0  0  0  0  0  0  0
   -4.3294  -22.7594   32.1878 H   0  0  0  0  0  0  0  0  0  0  0  0
   -3.7017  -22.3785   30.1534 H   0  0  0  0  0  0  0  0  0  0  0  0
   -3.6704  -23.8901   27.4516 H   0  0  0  0  0  0  0  0  0  0  0  0
   -6.0921  -22.8046   26.4113 H   0  0  0  0  0  0  0  0  0  0  0  0
  -11.5238  -21.2680   32.9843 H   0  0  0  0  0  0  0  0  0  0  0  0
  -11.2698  -19.2125   33.7706 H   0  0  0  0  0  0  0  0  0  0  0  0
  -12.1459  -16.9360   34.9105 H   0  0  0  0  0  0  0  0  0  0  0  0
  -15.6490  -19.1249   36.6470 H   0  0  0  0  0  0  0  0  0  0  0  0
  -15.7724  -20.4163   35.4219 H   0  0  0  0  0  0  0  0  0  0  0  0
  -14.7874  -20.6666   36.9045 H   0  0  0  0  0  0  0  0  0  0  0  0
  1  2  1  0
  2  3  1  0
  3  4  1  0
  4  5  1  0
  5  6  2  0
  5  7  1  0
  7  8  2  0
  8  9  1  0
  9 10  2  0
 10 11  1  0
 11 12  1  0
 12 13  2  0
 13 14  1  0
 14 15  2  0
  2 16  1  0
 16 17  1  0
 17 18  2  0
 17 19  1  0
 19 20  2  0
 20 21  1  0
 21 22  2  0
 22 23  1  0
 23 24  1  0
 15  7  1  0
 23 19  1  0
 15 11  1  0
  1 25  1  0
  1 26  1  0
  1 27  1  0
  2 28  1  0
  3 29  1  0
  3 30  1  0
  4 31  1  0
  8 32  1  0
  9 33  1  0
 10 34  1  0
 12 35  1  0
 13 36  1  0
 16 37  1  0
 20 38  1  0
 21 39  1  0
 24 40  1  0
 24 41  1  0
 24 42  1  0
M  END
>  <Energy>  (565) 
250.85417526735748

>  <compound_id>  (565) 
67949

>  <target_id>  (565) 
1

>  <reference_id>  (565) 
7

>  <inspiration_ids>  (565) 
[7, 45]

>  <energy_score>  (565) 
202.58904054155016

>  <distance_score>  (565) 
12.777368766298492

>  <path>  (565) 
/opt/xchem-fragalysis-2/maxwin/BulkDock/SCRATCH/511022/C67949-P7/C67949-P7.minimised.mol

>  <scratch_subdir>  (565) 
/opt/xchem-fragalysis-2/maxwin/BulkDock/SCRATCH/511022/C67949-P7

>  <fragmenstein_runtime>  (565) 
28.025180101394653

>  <fragmenstein_outcome>  (565) 
too moved

>  <fragmenstein_mode>  (565) 
expansion

>  <fragmenstein_error>  (565) 


$$$$
C67949-P45
     RDKit          3D

 42 44  0  0  0  0  0  0  0  0999 V2000
   -7.0647  -11.6786   31.9931 C   0  0  0  0  0  0  0  0  0  0  0  0
   -8.8951  -11.0609   32.4816 C   0  0  0  0  0  0  0  0  0  0  0  0
   -9.1931  -13.0111   33.1366 C   0  0  0  0  0  0  0  0  0  0  0  0
  -10.2846  -14.6483   33.3662 N   0  0  0  0  0  0  0  0  0  0  0  0
   -9.8817  -16.1101   33.9144 C   0  0  0  0  0  0  0  0  0  0  0  0
   -8.7906  -16.5626   34.2293 O   0  0  0  0  0  0  0  0  0  0  0  0
  -11.0909  -17.1731   34.2411 C   0  0  0  0  0  0  0  0  0  0  0  0
  -12.2943  -16.7279   34.6851 C   0  0  0  0  0  0  0  0  0  0  0  0
  -13.3441  -17.5793   35.2152 C   0  0  0  0  0  0  0  0  0  0  0  0
  -13.2228  -18.9042   35.1256 C   0  0  0  0  0  0  0  0  0  0  0  0
  -12.1215  -19.4116   34.4726 N   0  0  0  0  0  0  0  0  0  0  0  0
  -12.0524  -20.6647   33.9259 C   0  0  0  0  0  0  0  0  0  0  0  0
  -11.0418  -20.5671   33.0181 C   0  0  0  0  0  0  0  0  0  0  0  0
  -10.3198  -19.4148   33.2158 N   0  0  0  0  0  0  0  0  0  0  0  0
  -11.0286  -18.6436   34.0295 C   0  0  0  0  0  0  0  0  0  0  0  0
  -10.0615   -9.4984   33.2021 N   0  0  0  0  0  0  0  0  0  0  0  0
   -9.7080   -7.6681   33.4425 C   0  0  0  0  0  0  0  0  0  0  0  0
   -8.6935   -7.0926   33.1068 O   0  0  0  0  0  0  0  0  0  0  0  0
  -10.8780   -6.4862   34.4126 C   0  0  0  0  0  0  0  0  0  0  0  0
  -11.9854   -6.7373   35.2157 C   0  0  0  0  0  0  0  0  0  0  0  0
  -13.0539   -5.7911   35.2530 C   0  0  0  0  0  0  0  0  0  0  0  0
  -12.5151   -4.7510   34.7468 N   0  0  0  0  0  0  0  0  0  0  0  0
  -11.3247   -5.0500   35.2363 N   0  0  0  0  0  0  0  0  0  0  0  0
  -11.0484   -3.9263   36.1761 C   0  0  0  0  0  0  0  0  0  0  0  0
   -6.3761  -11.2034   31.2169 H   0  0  0  0  0  0  0  0  0  0  0  0
   -6.8816  -12.7580   31.8653 H   0  0  0  0  0  0  0  0  0  0  0  0
   -6.2980  -11.2159   32.6212 H   0  0  0  0  0  0  0  0  0  0  0  0
   -9.3325  -10.8655   31.5205 H   0  0  0  0  0  0  0  0  0  0  0  0
   -8.2125  -13.5892   32.9246 H   0  0  0  0  0  0  0  0  0  0  0  0
   -9.8631  -12.9475   32.4229 H   0  0  0  0  0  0  0  0  0  0  0  0
  -11.2819  -14.5867   33.2837 H   0  0  0  0  0  0  0  0  0  0  0  0
  -12.5575  -15.6809   34.6891 H   0  0  0  0  0  0  0  0  0  0  0  0
  -14.2064  -17.1112   35.6800 H   0  0  0  0  0  0  0  0  0  0  0  0
  -13.9830  -19.5960   35.4649 H   0  0  0  0  0  0  0  0  0  0  0  0
  -12.7915  -21.4284   34.1165 H   0  0  0  0  0  0  0  0  0  0  0  0
  -10.7885  -21.2951   32.2702 H   0  0  0  0  0  0  0  0  0  0  0  0
  -10.9429   -9.7388   33.6465 H   0  0  0  0  0  0  0  0  0  0  0  0
  -12.1951   -7.7271   35.4526 H   0  0  0  0  0  0  0  0  0  0  0  0
  -14.0623   -5.8709   35.6118 H   0  0  0  0  0  0  0  0  0  0  0  0
  -11.2071   -4.1681   37.2176 H   0  0  0  0  0  0  0  0  0  0  0  0
  -10.2102   -3.2677   35.9678 H   0  0  0  0  0  0  0  0  0  0  0  0
  -11.8507   -3.1897   36.0459 H   0  0  0  0  0  0  0  0  0  0  0  0
  1  2  1  0
  2  3  1  0
  3  4  1  0
  4  5  1  0
  5  6  2  0
  5  7  1  0
  7  8  2  0
  8  9  1  0
  9 10  2  0
 10 11  1  0
 11 12  1  0
 12 13  2  0
 13 14  1  0
 14 15  2  0
  2 16  1  0
 16 17  1  0
 17 18  2  0
 17 19  1  0
 19 20  2  0
 20 21  1  0
 21 22  2  0
 22 23  1  0
 23 24  1  0
 15  7  1  0
 23 19  1  0
 15 11  1  0
  1 25  1  0
  1 26  1  0
  1 27  1  0
  2 28  1  0
  3 29  1  0
  3 30  1  0
  4 31  1  0
  8 32  1  0
  9 33  1  0
 10 34  1  0
 12 35  1  0
 13 36  1  0
 16 37  1  0
 20 38  1  0
 21 39  1  0
 24 40  1  0
 24 41  1  0
 24 42  1  0
M  END
>  <Energy>  (566) 
782.71051133041055

>  <compound_id>  (566) 
67949

>  <target_id>  (566) 
1

>  <reference_id>  (566) 
45

>  <inspiration_ids>  (566) 
[7, 45]

>  <energy_score>  (566) 
734.4453766045831

>  <distance_score>  (566) 
10.165487287582978

>  <path>  (566) 
/opt/xchem-fragalysis-2/maxwin/BulkDock/SCRATCH/511022/C67949-P45/C67949-P45.minimised.mol

>  <scratch_subdir>  (566) 
/opt/xchem-fragalysis-2/maxwin/BulkDock/SCRATCH/511022/C67949-P45

>  <fragmenstein_runtime>  (566) 
20.680492877960205

>  <fragmenstein_outcome>  (566) 
too moved

>  <fragmenstein_mode>  (566) 
expansion

>  <fragmenstein_error>  (566) 


$$$$
C67950-P7
     RDKit          3D

 30 33  0  0  0  0  0  0  0  0999 V2000
   -7.5713   -6.0664   34.0474 F   0  0  0  0  0  0  0  0  0  0  0  0
   -7.5802   -6.9460   33.0045 C   0  0  0  0  0  0  0  0  0  0  0  0
   -6.2648   -7.4592   33.4476 F   0  0  0  0  0  0  0  0  0  0  0  0
   -7.0458   -6.5958   31.8251 F   0  0  0  0  0  0  0  0  0  0  0  0
   -9.1588   -8.0008   33.1369 C   0  0  0  0  0  0  0  0  0  0  0  0
  -10.2890   -7.5944   32.6012 C   0  0  0  0  0  0  0  0  0  0  0  0
  -11.0251   -8.6703   32.3498 N   0  0  0  0  0  0  0  0  0  0  0  0
  -10.6763   -9.4132   33.3351 N   0  0  0  0  0  0  0  0  0  0  0  0
   -9.5264   -9.8344   32.8591 C   0  0  0  0  0  0  0  0  0  0  0  0
   -8.7868  -11.6032   32.6244 C   0  0  0  0  0  0  0  0  0  0  0  0
   -9.4134  -13.0937   32.7901 N   0  0  0  0  0  0  0  0  0  0  0  0
   -8.7743  -14.4299   31.5923 C   0  0  0  0  0  0  0  0  0  0  0  0
   -9.3371  -14.3221   29.7284 C   0  0  0  0  0  0  0  0  0  0  0  0
  -10.7455  -14.3275   29.2105 C   0  0  0  0  0  0  0  0  0  0  0  0
  -11.1505  -14.0951   27.8095 C   0  0  0  0  0  0  0  0  0  0  0  0
  -10.4197  -14.2920   26.7323 C   0  0  0  0  0  0  0  0  0  0  0  0
   -9.0854  -14.2658   26.9657 N   0  0  0  0  0  0  0  0  0  0  0  0
   -8.2284  -13.9633   25.9571 C   0  0  0  0  0  0  0  0  0  0  0  0
   -7.1744  -13.4626   26.6339 C   0  0  0  0  0  0  0  0  0  0  0  0
   -7.2217  -13.8454   27.9741 N   0  0  0  0  0  0  0  0  0  0  0  0
   -8.4472  -14.1536   28.2589 C   0  0  0  0  0  0  0  0  0  0  0  0
   -7.3515  -14.0300   31.6057 N   0  0  0  0  0  0  0  0  0  0  0  0
   -7.2465  -12.2209   31.9812 O   0  0  0  0  0  0  0  0  0  0  0  0
  -10.4031   -7.1540   31.6665 H   0  0  0  0  0  0  0  0  0  0  0  0
  -11.3407   -9.9821   33.8470 H   0  0  0  0  0  0  0  0  0  0  0  0
  -11.5810  -14.6728   29.8138 H   0  0  0  0  0  0  0  0  0  0  0  0
  -11.9808  -13.4367   27.6379 H   0  0  0  0  0  0  0  0  0  0  0  0
  -10.7658  -14.0726   25.7298 H   0  0  0  0  0  0  0  0  0  0  0  0
   -8.5028  -13.9415   24.9134 H   0  0  0  0  0  0  0  0  0  0  0  0
   -6.3401  -12.9118   26.2231 H   0  0  0  0  0  0  0  0  0  0  0  0
  1  2  1  0
  2  3  1  0
  2  4  1  0
  2  5  1  0
  5  6  1  0
  6  7  2  0
  7  8  1  0
  8  9  1  0
  9 10  1  0
 10 11  2  0
 11 12  1  0
 12 13  1  0
 13 14  2  0
 14 15  1  0
 15 16  2  0
 16 17  1  0
 17 18  1  0
 18 19  2  0
 19 20  1  0
 20 21  2  0
 12 22  2  0
 22 23  1  0
  9  5  2  0
 23 10  1  0
 21 13  1  0
 21 17  1  0
  6 24  1  0
  8 25  1  0
 14 26  1  0
 15 27  1  0
 16 28  1  0
 18 29  1  0
 19 30  1  0
M  END
>  <Energy>  (567) 
753.87971307660121

>  <compound_id>  (567) 
67950

>  <target_id>  (567) 
1

>  <reference_id>  (567) 
7

>  <inspiration_ids>  (567) 
[7, 45]

>  <energy_score>  (567) 
683.3688742460838

>  <distance_score>  (567) 
11.649097316492862

>  <path>  (567) 
/opt/xchem-fragalysis-2/maxwin/BulkDock/SCRATCH/511022/C67950-P7/C67950-P7.minimised.mol

>  <scratch_subdir>  (567) 
/opt/xchem-fragalysis-2/maxwin/BulkDock/SCRATCH/511022/C67950-P7

>  <fragmenstein_runtime>  (567) 
16.028083562850952

>  <fragmenstein_outcome>  (567) 
too moved

>  <fragmenstein_mode>  (567) 
expansion

>  <fragmenstein_error>  (567) 


$$$$
C67950-P45
     RDKit          3D

 30 33  0  0  0  0  0  0  0  0999 V2000
  -10.0116   -8.1630   33.0698 F   0  0  0  0  0  0  0  0  0  0  0  0
  -10.1282   -9.5270   33.2740 C   0  0  0  0  0  0  0  0  0  0  0  0
  -11.4167   -9.7405   33.5228 F   0  0  0  0  0  0  0  0  0  0  0  0
   -9.7491   -9.7091   34.5405 F   0  0  0  0  0  0  0  0  0  0  0  0
   -9.6176  -11.1478   32.2393 C   0  0  0  0  0  0  0  0  0  0  0  0
   -9.6578  -10.6608   30.9932 C   0  0  0  0  0  0  0  0  0  0  0  0
   -8.4590  -10.7171   31.4144 N   0  0  0  0  0  0  0  0  0  0  0  0
   -8.3582  -11.6061   32.5664 N   0  0  0  0  0  0  0  0  0  0  0  0
   -9.4821  -13.0325   32.6473 C   0  0  0  0  0  0  0  0  0  0  0  0
   -8.7947  -14.5244   31.3169 C   0  0  0  0  0  0  0  0  0  0  0  0
   -8.8755  -15.1311   29.4724 N   0  0  0  0  0  0  0  0  0  0  0  0
   -8.4748  -17.3700   29.1754 C   0  0  0  0  0  0  0  0  0  0  0  0
   -8.4414  -19.2485   28.2895 C   0  0  0  0  0  0  0  0  0  0  0  0
   -9.4085  -20.6471   27.9813 C   0  0  0  0  0  0  0  0  0  0  0  0
  -10.2201  -21.8332   28.5769 C   0  0  0  0  0  0  0  0  0  0  0  0
   -9.4519  -22.8968   28.3235 C   0  0  0  0  0  0  0  0  0  0  0  0
   -8.1084  -22.5345   27.9969 N   0  0  0  0  0  0  0  0  0  0  0  0
   -7.1512  -23.4682   27.7576 C   0  0  0  0  0  0  0  0  0  0  0  0
   -6.0095  -22.7810   27.6259 C   0  0  0  0  0  0  0  0  0  0  0  0
   -6.2216  -21.4083   27.6113 N   0  0  0  0  0  0  0  0  0  0  0  0
   -7.5205  -20.9443   27.8143 C   0  0  0  0  0  0  0  0  0  0  0  0
   -7.7686  -17.6244   30.9628 N   0  0  0  0  0  0  0  0  0  0  0  0
   -8.5230  -16.1394   32.1569 O   0  0  0  0  0  0  0  0  0  0  0  0
  -10.0084  -10.0272   30.1701 H   0  0  0  0  0  0  0  0  0  0  0  0
   -7.4352  -11.9048   32.2840 H   0  0  0  0  0  0  0  0  0  0  0  0
   -9.9670  -20.7867   27.0359 H   0  0  0  0  0  0  0  0  0  0  0  0
  -11.2858  -21.8535   28.7561 H   0  0  0  0  0  0  0  0  0  0  0  0
   -9.7324  -23.9390   28.3924 H   0  0  0  0  0  0  0  0  0  0  0  0
   -7.3550  -24.5281   27.7841 H   0  0  0  0  0  0  0  0  0  0  0  0
   -5.0275  -23.2148   27.5505 H   0  0  0  0  0  0  0  0  0  0  0  0
  1  2  1  0
  2  3  1  0
  2  4  1  0
  2  5  1  0
  5  6  1  0
  6  7  2  0
  7  8  1  0
  8  9  1  0
  9 10  1  0
 10 11  2  0
 11 12  1  0
 12 13  1  0
 13 14  2  0
 14 15  1  0
 15 16  2  0
 16 17  1  0
 17 18  1  0
 18 19  2  0
 19 20  1  0
 20 21  2  0
 12 22  2  0
 22 23  1  0
  9  5  2  0
 23 10  1  0
 21 13  1  0
 21 17  1  0
  6 24  1  0
  8 25  1  0
 14 26  1  0
 15 27  1  0
 16 28  1  0
 18 29  1  0
 19 30  1  0
M  END
>  <Energy>  (568) 
2051.7048042626707

>  <compound_id>  (568) 
67950

>  <target_id>  (568) 
1

>  <reference_id>  (568) 
45

>  <inspiration_ids>  (568) 
[7, 45]

>  <energy_score>  (568) 
1981.193965432164

>  <distance_score>  (568) 
8.96256377242641

>  <path>  (568) 
/opt/xchem-fragalysis-2/maxwin/BulkDock/SCRATCH/511022/C67950-P45/C67950-P45.minimised.mol

>  <scratch_subdir>  (568) 
/opt/xchem-fragalysis-2/maxwin/BulkDock/SCRATCH/511022/C67950-P45

>  <fragmenstein_runtime>  (568) 
8.650190830230713

>  <fragmenstein_outcome>  (568) 
too moved

>  <fragmenstein_mode>  (568) 
expansion

>  <fragmenstein_error>  (568) 


$$$$
C67951-P7
     RDKit          3D

 42 44  0  0  0  0  0  0  0  0999 V2000
  -12.8224  -14.9537   34.1416 C   0  0  0  0  0  0  0  0  0  0  0  0
  -12.9351  -14.0740   32.8729 C   0  0  0  0  0  0  0  0  0  0  0  0
  -12.5572  -15.5062   31.5627 C   0  0  0  0  0  0  0  0  0  0  0  0
  -12.4758  -16.5222   30.0662 N   0  0  0  0  0  0  0  0  0  0  0  0
  -12.0655  -18.2121   29.1312 C   0  0  0  0  0  0  0  0  0  0  0  0
  -12.2211  -20.2866   29.1565 C   0  0  0  0  0  0  0  0  0  0  0  0
  -12.7726  -21.1943   28.2358 C   0  0  0  0  0  0  0  0  0  0  0  0
  -12.2048  -22.4867   27.8794 C   0  0  0  0  0  0  0  0  0  0  0  0
  -11.7130  -23.2849   28.8088 C   0  0  0  0  0  0  0  0  0  0  0  0
  -11.6884  -22.7578   30.0990 C   0  0  0  0  0  0  0  0  0  0  0  0
  -11.6213  -23.4464   31.2099 N   0  0  0  0  0  0  0  0  0  0  0  0
  -11.4633  -22.5208   32.1682 C   0  0  0  0  0  0  0  0  0  0  0  0
  -11.3491  -21.2631   31.6236 C   0  0  0  0  0  0  0  0  0  0  0  0
  -11.6870  -21.3284   30.2742 N   0  0  0  0  0  0  0  0  0  0  0  0
  -12.7953  -12.1304   32.9033 C   0  0  0  0  0  0  0  0  0  0  0  0
  -11.3823  -11.1118   32.7515 N   0  0  0  0  0  0  0  0  0  0  0  0
  -10.9676   -9.9922   33.4436 C   0  0  0  0  0  0  0  0  0  0  0  0
   -9.8604   -9.4969   32.7124 C   0  0  0  0  0  0  0  0  0  0  0  0
   -9.0210   -8.2939   32.5643 C   0  0  0  0  0  0  0  0  0  0  0  0
   -9.3624   -7.2930   33.3696 F   0  0  0  0  0  0  0  0  0  0  0  0
   -7.7073   -8.5575   32.7969 F   0  0  0  0  0  0  0  0  0  0  0  0
   -9.0950   -7.8816   31.2745 F   0  0  0  0  0  0  0  0  0  0  0  0
   -9.3442  -10.6541   32.1806 C   0  0  0  0  0  0  0  0  0  0  0  0
  -10.0590  -11.6425   32.6662 N   0  0  0  0  0  0  0  0  0  0  0  0
  -13.2087  -14.4215   35.0165 H   0  0  0  0  0  0  0  0  0  0  0  0
  -13.4655  -15.8383   34.0373 H   0  0  0  0  0  0  0  0  0  0  0  0
  -11.8110  -15.3401   34.2794 H   0  0  0  0  0  0  0  0  0  0  0  0
  -13.9860  -13.9296   33.1344 H   0  0  0  0  0  0  0  0  0  0  0  0
  -13.0331  -14.9059   30.7939 H   0  0  0  0  0  0  0  0  0  0  0  0
  -11.4956  -15.3367   31.5962 H   0  0  0  0  0  0  0  0  0  0  0  0
  -13.3159  -16.2592   29.5355 H   0  0  0  0  0  0  0  0  0  0  0  0
  -12.1083  -17.7395   28.1663 H   0  0  0  0  0  0  0  0  0  0  0  0
  -12.9922  -18.5423   29.3555 H   0  0  0  0  0  0  0  0  0  0  0  0
  -13.5616  -21.0744   27.5033 H   0  0  0  0  0  0  0  0  0  0  0  0
  -12.2627  -22.8171   26.8456 H   0  0  0  0  0  0  0  0  0  0  0  0
  -11.3623  -24.2902   28.6116 H   0  0  0  0  0  0  0  0  0  0  0  0
  -11.3806  -22.8016   33.2070 H   0  0  0  0  0  0  0  0  0  0  0  0
  -11.1151  -20.3689   32.1663 H   0  0  0  0  0  0  0  0  0  0  0  0
  -13.2199  -11.7439   33.8400 H   0  0  0  0  0  0  0  0  0  0  0  0
  -13.3634  -11.7472   32.0443 H   0  0  0  0  0  0  0  0  0  0  0  0
  -11.4906   -9.7776   34.3614 H   0  0  0  0  0  0  0  0  0  0  0  0
   -8.4258  -10.8493   31.6396 H   0  0  0  0  0  0  0  0  0  0  0  0
  1  2  1  0
  2  3  1  0
  3  4  1  0
  4  5  1  0
  5  6  1  0
  6  7  2  0
  7  8  1  0
  8  9  2  0
  9 10  1  0
 10 11  2  0
 11 12  1  0
 12 13  2  0
 13 14  1  0
  2 15  1  0
 15 16  1  0
 16 17  1  0
 17 18  2  0
 18 19  1  0
 19 20  1  0
 19 21  1  0
 19 22  1  0
 18 23  1  0
 23 24  2  0
 14  6  1  0
 24 16  1  0
 14 10  1  0
  1 25  1  0
  1 26  1  0
  1 27  1  0
  2 28  1  0
  3 29  1  0
  3 30  1  0
  4 31  1  0
  5 32  1  0
  5 33  1  0
  7 34  1  0
  8 35  1  0
  9 36  1  0
 12 37  1  0
 13 38  1  0
 15 39  1  0
 15 40  1  0
 17 41  1  0
 23 42  1  0
M  END
>  <Energy>  (569) 
657.39949766739687

>  <compound_id>  (569) 
67951

>  <target_id>  (569) 
1

>  <reference_id>  (569) 
7

>  <inspiration_ids>  (569) 
[7, 45]

>  <energy_score>  (569) 
569.0643643832884

>  <distance_score>  (569) 
9.807372413208768

>  <path>  (569) 
/opt/xchem-fragalysis-2/maxwin/BulkDock/SCRATCH/511022/C67951-P7/C67951-P7.minimised.mol

>  <scratch_subdir>  (569) 
/opt/xchem-fragalysis-2/maxwin/BulkDock/SCRATCH/511022/C67951-P7

>  <fragmenstein_runtime>  (569) 
13.8086678981781

>  <fragmenstein_outcome>  (569) 
too moved

>  <fragmenstein_mode>  (569) 
expansion

>  <fragmenstein_error>  (569) 


$$$$
C67951-P45
     RDKit          3D

 42 44  0  0  0  0  0  0  0  0999 V2000
  -16.0504  -12.3398   38.3113 C   0  0  0  0  0  0  0  0  0  0  0  0
  -15.0568  -11.8527   37.2569 C   0  0  0  0  0  0  0  0  0  0  0  0
  -14.2633  -13.0897   36.6431 C   0  0  0  0  0  0  0  0  0  0  0  0
  -14.9921  -14.3211   36.1184 N   0  0  0  0  0  0  0  0  0  0  0  0
  -13.9849  -15.4064   35.7375 C   0  0  0  0  0  0  0  0  0  0  0  0
  -14.2726  -16.8830   35.3118 C   0  0  0  0  0  0  0  0  0  0  0  0
  -15.4990  -17.4479   35.2831 C   0  0  0  0  0  0  0  0  0  0  0  0
  -15.6703  -18.8665   34.9689 C   0  0  0  0  0  0  0  0  0  0  0  0
  -14.6297  -19.6785   34.7192 C   0  0  0  0  0  0  0  0  0  0  0  0
  -13.3220  -19.1350   34.6950 C   0  0  0  0  0  0  0  0  0  0  0  0
  -12.1934  -19.7010   34.3197 N   0  0  0  0  0  0  0  0  0  0  0  0
  -11.2845  -18.6870   34.3385 C   0  0  0  0  0  0  0  0  0  0  0  0
  -11.8339  -17.5210   34.8179 C   0  0  0  0  0  0  0  0  0  0  0  0
  -13.1770  -17.7623   34.9802 N   0  0  0  0  0  0  0  0  0  0  0  0
  -14.0239  -10.8508   37.8848 C   0  0  0  0  0  0  0  0  0  0  0  0
  -14.4143   -9.6263   38.5795 N   0  0  0  0  0  0  0  0  0  0  0  0
  -15.4711   -8.7753   38.3778 C   0  0  0  0  0  0  0  0  0  0  0  0
  -15.1940   -7.6026   39.0768 C   0  0  0  0  0  0  0  0  0  0  0  0
  -15.8780   -6.2827   39.0843 C   0  0  0  0  0  0  0  0  0  0  0  0
  -15.2293   -5.4016   38.2778 F   0  0  0  0  0  0  0  0  0  0  0  0
  -17.1520   -6.3672   38.6254 F   0  0  0  0  0  0  0  0  0  0  0  0
  -15.9303   -5.7314   40.3203 F   0  0  0  0  0  0  0  0  0  0  0  0
  -14.0075   -7.9064   39.7728 C   0  0  0  0  0  0  0  0  0  0  0  0
  -13.5214   -9.1063   39.4526 N   0  0  0  0  0  0  0  0  0  0  0  0
  -16.7787  -13.0297   37.8731 H   0  0  0  0  0  0  0  0  0  0  0  0
  -15.5379  -12.8609   39.1271 H   0  0  0  0  0  0  0  0  0  0  0  0
  -16.6122  -11.5062   38.7429 H   0  0  0  0  0  0  0  0  0  0  0  0
  -15.6089  -11.3524   36.4526 H   0  0  0  0  0  0  0  0  0  0  0  0
  -13.6475  -12.7015   35.8250 H   0  0  0  0  0  0  0  0  0  0  0  0
  -13.5826  -13.4417   37.4282 H   0  0  0  0  0  0  0  0  0  0  0  0
  -15.4502  -14.0464   35.2464 H   0  0  0  0  0  0  0  0  0  0  0  0
  -13.3682  -14.9759   34.9419 H   0  0  0  0  0  0  0  0  0  0  0  0
  -13.4219  -15.5557   36.6637 H   0  0  0  0  0  0  0  0  0  0  0  0
  -16.3822  -16.8740   35.5507 H   0  0  0  0  0  0  0  0  0  0  0  0
  -16.6826  -19.2611   34.9900 H   0  0  0  0  0  0  0  0  0  0  0  0
  -14.7603  -20.7347   34.5142 H   0  0  0  0  0  0  0  0  0  0  0  0
  -10.2817  -18.8179   33.9585 H   0  0  0  0  0  0  0  0  0  0  0  0
  -11.4079  -16.5359   34.9044 H   0  0  0  0  0  0  0  0  0  0  0  0
  -13.4269  -11.4132   38.6169 H   0  0  0  0  0  0  0  0  0  0  0  0
  -13.3274  -10.5318   37.1047 H   0  0  0  0  0  0  0  0  0  0  0  0
  -16.2833   -9.0339   37.7116 H   0  0  0  0  0  0  0  0  0  0  0  0
  -13.4447   -7.2814   40.4572 H   0  0  0  0  0  0  0  0  0  0  0  0
  1  2  1  0
  2  3  1  0
  3  4  1  0
  4  5  1  0
  5  6  1  0
  6  7  2  0
  7  8  1  0
  8  9  2  0
  9 10  1  0
 10 11  2  0
 11 12  1  0
 12 13  2  0
 13 14  1  0
  2 15  1  0
 15 16  1  0
 16 17  1  0
 17 18  2  0
 18 19  1  0
 19 20  1  0
 19 21  1  0
 19 22  1  0
 18 23  1  0
 23 24  2  0
 14  6  1  0
 24 16  1  0
 14 10  1  0
  1 25  1  0
  1 26  1  0
  1 27  1  0
  2 28  1  0
  3 29  1  0
  3 30  1  0
  4 31  1  0
  5 32  1  0
  5 33  1  0
  7 34  1  0
  8 35  1  0
  9 36  1  0
 12 37  1  0
 13 38  1  0
 15 39  1  0
 15 40  1  0
 17 41  1  0
 23 42  1  0
M  END
>  <Energy>  (570) 
59.563169499130744

>  <compound_id>  (570) 
67951

>  <target_id>  (570) 
1

>  <reference_id>  (570) 
45

>  <inspiration_ids>  (570) 
[7, 45]

>  <energy_score>  (570) 
-28.771963784978368

>  <distance_score>  (570) 
11.356579194469314

>  <path>  (570) 
/opt/xchem-fragalysis-2/maxwin/BulkDock/SCRATCH/511022/C67951-P45/C67951-P45.minimised.mol

>  <scratch_subdir>  (570) 
/opt/xchem-fragalysis-2/maxwin/BulkDock/SCRATCH/511022/C67951-P45

>  <fragmenstein_runtime>  (570) 
9.017673969268799

>  <fragmenstein_outcome>  (570) 
too moved

>  <fragmenstein_mode>  (570) 
expansion

>  <fragmenstein_error>  (570) 


$$$$
C67953-P7
     RDKit          3D

 36 38  0  0  0  0  0  0  0  0999 V2000
  -15.2445  -16.6248   36.6195 C   0  0  0  0  0  0  0  0  0  0  0  0
  -15.6005  -16.5320   35.1431 C   0  0  0  0  0  0  0  0  0  0  0  0
  -15.2271  -15.1684   34.4566 C   0  0  0  0  0  0  0  0  0  0  0  0
  -15.2946  -13.8397   35.1099 N   0  0  0  0  0  0  0  0  0  0  0  0
  -16.3282  -13.2252   35.8880 C   0  0  0  0  0  0  0  0  0  0  0  0
  -17.3716  -13.6591   36.2775 O   0  0  0  0  0  0  0  0  0  0  0  0
  -16.0601  -11.8006   36.2417 C   0  0  0  0  0  0  0  0  0  0  0  0
  -16.9799  -11.1286   37.0327 N   0  0  0  0  0  0  0  0  0  0  0  0
  -16.6905   -9.8450   37.3144 N   0  0  0  0  0  0  0  0  0  0  0  0
  -15.5438   -9.6466   36.6742 C   0  0  0  0  0  0  0  0  0  0  0  0
  -15.1120  -10.8095   35.9990 C   0  0  0  0  0  0  0  0  0  0  0  0
  -13.6893  -10.7946   35.0992 Cl  0  0  0  0  0  0  0  0  0  0  0  0
  -15.0089  -17.7226   34.4400 N   0  0  0  0  0  0  0  0  0  0  0  0
  -15.4132  -18.4088   33.2414 C   0  0  0  0  0  0  0  0  0  0  0  0
  -16.2807  -18.1587   32.4513 O   0  0  0  0  0  0  0  0  0  0  0  0
  -14.5708  -19.6590   32.9203 C   0  0  0  0  0  0  0  0  0  0  0  0
  -14.7344  -20.4144   31.8047 C   0  0  0  0  0  0  0  0  0  0  0  0
  -13.7367  -21.3584   31.6503 N   0  0  0  0  0  0  0  0  0  0  0  0
  -13.3489  -22.2624   30.7029 C   0  0  0  0  0  0  0  0  0  0  0  0
  -12.1598  -22.7816   31.1871 C   0  0  0  0  0  0  0  0  0  0  0  0
  -11.8062  -22.1949   32.3870 N   0  0  0  0  0  0  0  0  0  0  0  0
  -12.7973  -21.3799   32.6343 C   0  0  0  0  0  0  0  0  0  0  0  0
  -13.1682  -20.1909   33.8642 S   0  0  0  0  0  0  0  0  0  0  0  0
  -15.6670  -17.5398   37.0514 H   0  0  0  0  0  0  0  0  0  0  0  0
  -14.1625  -16.6844   36.7680 H   0  0  0  0  0  0  0  0  0  0  0  0
  -15.6436  -15.7820   37.1891 H   0  0  0  0  0  0  0  0  0  0  0  0
  -16.6882  -16.6445   35.0503 H   0  0  0  0  0  0  0  0  0  0  0  0
  -15.9149  -15.0769   33.6153 H   0  0  0  0  0  0  0  0  0  0  0  0
  -14.2058  -15.2446   34.0676 H   0  0  0  0  0  0  0  0  0  0  0  0
  -14.5865  -13.1450   34.8943 H   0  0  0  0  0  0  0  0  0  0  0  0
  -17.8384  -11.5269   37.4026 H   0  0  0  0  0  0  0  0  0  0  0  0
  -15.0725   -8.6731   36.7193 H   0  0  0  0  0  0  0  0  0  0  0  0
  -14.1784  -18.1750   34.8168 H   0  0  0  0  0  0  0  0  0  0  0  0
  -15.4934  -20.2848   31.0468 H   0  0  0  0  0  0  0  0  0  0  0  0
  -13.9214  -22.4577   29.8075 H   0  0  0  0  0  0  0  0  0  0  0  0
  -11.5370  -23.5434   30.7339 H   0  0  0  0  0  0  0  0  0  0  0  0
  1  2  1  0
  2  3  1  0
  3  4  1  0
  4  5  1  0
  5  6  2  0
  5  7  1  0
  7  8  1  0
  8  9  1  0
  9 10  2  0
 10 11  1  0
 11 12  1  0
  2 13  1  0
 13 14  1  0
 14 15  2  0
 14 16  1  0
 16 17  2  0
 17 18  1  0
 18 19  1  0
 19 20  2  0
 20 21  1  0
 21 22  2  0
 22 23  1  0
 11  7  2  0
 23 16  1  0
 22 18  1  0
  1 24  1  0
  1 25  1  0
  1 26  1  0
  2 27  1  0
  3 28  1  0
  3 29  1  0
  4 30  1  0
  8 31  1  0
 10 32  1  0
 13 33  1  0
 17 34  1  0
 19 35  1  0
 20 36  1  0
M  END
>  <Energy>  (571) 
0.12420748947282267

>  <compound_id>  (571) 
67953

>  <target_id>  (571) 
1

>  <reference_id>  (571) 
7

>  <inspiration_ids>  (571) 
[7, 45]

>  <energy_score>  (571) 
-31.291527331102543

>  <distance_score>  (571) 
11.546278202949818

>  <path>  (571) 
/opt/xchem-fragalysis-2/maxwin/BulkDock/SCRATCH/511022/C67953-P7/C67953-P7.minimised.mol

>  <scratch_subdir>  (571) 
/opt/xchem-fragalysis-2/maxwin/BulkDock/SCRATCH/511022/C67953-P7

>  <fragmenstein_runtime>  (571) 
33.740419149398804

>  <fragmenstein_outcome>  (571) 
too moved

>  <fragmenstein_mode>  (571) 
expansion

>  <fragmenstein_error>  (571) 


$$$$
C67953-P45
     RDKit          3D

 36 38  0  0  0  0  0  0  0  0999 V2000
  -16.2249  -16.7900   35.5884 C   0  0  0  0  0  0  0  0  0  0  0  0
  -15.3101  -16.3843   34.4355 C   0  0  0  0  0  0  0  0  0  0  0  0
  -14.3856  -15.1996   34.8384 C   0  0  0  0  0  0  0  0  0  0  0  0
  -14.9390  -13.8306   34.7449 N   0  0  0  0  0  0  0  0  0  0  0  0
  -15.6263  -13.0104   35.7305 C   0  0  0  0  0  0  0  0  0  0  0  0
  -15.9873  -13.2676   36.8412 O   0  0  0  0  0  0  0  0  0  0  0  0
  -15.9120  -11.6285   35.2639 C   0  0  0  0  0  0  0  0  0  0  0  0
  -16.2257  -11.2480   33.9772 N   0  0  0  0  0  0  0  0  0  0  0  0
  -16.6654   -9.9774   33.8433 N   0  0  0  0  0  0  0  0  0  0  0  0
  -16.5043   -9.4696   35.0631 C   0  0  0  0  0  0  0  0  0  0  0  0
  -15.9917  -10.4212   35.9700 C   0  0  0  0  0  0  0  0  0  0  0  0
  -15.5547   -9.9836   37.5586 Cl  0  0  0  0  0  0  0  0  0  0  0  0
  -14.5863  -17.5716   33.8983 N   0  0  0  0  0  0  0  0  0  0  0  0
  -13.7487  -18.5514   34.5575 C   0  0  0  0  0  0  0  0  0  0  0  0
  -13.3606  -18.6119   35.6882 O   0  0  0  0  0  0  0  0  0  0  0  0
  -13.3424  -19.6979   33.6149 C   0  0  0  0  0  0  0  0  0  0  0  0
  -14.0476  -20.3244   32.6456 C   0  0  0  0  0  0  0  0  0  0  0  0
  -13.3075  -21.3034   32.0057 N   0  0  0  0  0  0  0  0  0  0  0  0
  -13.4727  -22.1394   30.9389 C   0  0  0  0  0  0  0  0  0  0  0  0
  -12.2562  -22.7875   30.8104 C   0  0  0  0  0  0  0  0  0  0  0  0
  -11.3629  -22.3582   31.7666 N   0  0  0  0  0  0  0  0  0  0  0  0
  -12.0432  -21.4927   32.4663 C   0  0  0  0  0  0  0  0  0  0  0  0
  -11.7038  -20.4308   33.7988 S   0  0  0  0  0  0  0  0  0  0  0  0
  -16.8459  -15.9483   35.9107 H   0  0  0  0  0  0  0  0  0  0  0  0
  -15.6496  -17.1385   36.4526 H   0  0  0  0  0  0  0  0  0  0  0  0
  -16.8919  -17.6045   35.2856 H   0  0  0  0  0  0  0  0  0  0  0  0
  -15.9492  -16.0549   33.6115 H   0  0  0  0  0  0  0  0  0  0  0  0
  -14.0344  -15.3477   35.8640 H   0  0  0  0  0  0  0  0  0  0  0  0
  -13.5079  -15.2005   34.1840 H   0  0  0  0  0  0  0  0  0  0  0  0
  -14.8631  -13.3137   33.8795 H   0  0  0  0  0  0  0  0  0  0  0  0
  -16.2221  -11.8244   33.1427 H   0  0  0  0  0  0  0  0  0  0  0  0
  -16.7366   -8.4276   35.2366 H   0  0  0  0  0  0  0  0  0  0  0  0
  -14.7781  -17.8813   32.9590 H   0  0  0  0  0  0  0  0  0  0  0  0
  -15.0634  -20.1264   32.3426 H   0  0  0  0  0  0  0  0  0  0  0  0
  -14.3952  -22.2078   30.3808 H   0  0  0  0  0  0  0  0  0  0  0  0
  -11.9786  -23.5388   30.0802 H   0  0  0  0  0  0  0  0  0  0  0  0
  1  2  1  0
  2  3  1  0
  3  4  1  0
  4  5  1  0
  5  6  2  0
  5  7  1  0
  7  8  1  0
  8  9  1  0
  9 10  2  0
 10 11  1  0
 11 12  1  0
  2 13  1  0
 13 14  1  0
 14 15  2  0
 14 16  1  0
 16 17  2  0
 17 18  1  0
 18 19  1  0
 19 20  2  0
 20 21  1  0
 21 22  2  0
 22 23  1  0
 11  7  2  0
 23 16  1  0
 22 18  1  0
  1 24  1  0
  1 25  1  0
  1 26  1  0
  2 27  1  0
  3 28  1  0
  3 29  1  0
  4 30  1  0
  8 31  1  0
 10 32  1  0
 13 33  1  0
 17 34  1  0
 19 35  1  0
 20 36  1  0
M  END
>  <Energy>  (572) 
16.192127258166959

>  <compound_id>  (572) 
67953

>  <target_id>  (572) 
1

>  <reference_id>  (572) 
45

>  <inspiration_ids>  (572) 
[7, 45]

>  <energy_score>  (572) 
-15.223607562410734

>  <distance_score>  (572) 
11.355616429918369

>  <path>  (572) 
/opt/xchem-fragalysis-2/maxwin/BulkDock/SCRATCH/511022/C67953-P45/C67953-P45.minimised.mol

>  <scratch_subdir>  (572) 
/opt/xchem-fragalysis-2/maxwin/BulkDock/SCRATCH/511022/C67953-P45

>  <fragmenstein_runtime>  (572) 
16.787977933883667

>  <fragmenstein_outcome>  (572) 
too moved

>  <fragmenstein_mode>  (572) 
expansion

>  <fragmenstein_error>  (572) 


$$$$
C67954-P7
     RDKit          3D

 36 38  0  0  0  0  0  0  0  0999 V2000
   -8.9609  -16.6005   33.7846 C   0  0  0  0  0  0  0  0  0  0  0  0
   -8.4821  -15.8333   32.3381 C   0  0  0  0  0  0  0  0  0  0  0  0
   -9.2302  -13.6454   32.7201 C   0  0  0  0  0  0  0  0  0  0  0  0
   -8.8933  -11.4001   32.6787 N   0  0  0  0  0  0  0  0  0  0  0  0
  -10.0881   -9.6438   33.1327 C   0  0  0  0  0  0  0  0  0  0  0  0
  -11.2733   -9.8756   33.4017 O   0  0  0  0  0  0  0  0  0  0  0  0
   -9.7636   -7.6213   33.4444 C   0  0  0  0  0  0  0  0  0  0  0  0
  -11.0610   -7.0763   34.4485 N   0  0  0  0  0  0  0  0  0  0  0  0
  -11.2118   -6.3534   35.5681 N   0  0  0  0  0  0  0  0  0  0  0  0
  -10.1347   -5.7117   35.9398 C   0  0  0  0  0  0  0  0  0  0  0  0
  -10.0513   -6.1177   34.5910 C   0  0  0  0  0  0  0  0  0  0  0  0
  -11.2885   -4.1695   35.0080 Cl  0  0  0  0  0  0  0  0  0  0  0  0
   -7.7434  -17.7508   31.2821 N   0  0  0  0  0  0  0  0  0  0  0  0
   -7.8466  -18.4437   29.2517 C   0  0  0  0  0  0  0  0  0  0  0  0
   -8.3055  -17.5815   28.5497 O   0  0  0  0  0  0  0  0  0  0  0  0
   -7.5129  -20.2591   27.9629 C   0  0  0  0  0  0  0  0  0  0  0  0
   -8.3317  -21.0830   27.2571 C   0  0  0  0  0  0  0  0  0  0  0  0
  -10.3325  -21.7090   28.0756 S   0  0  0  0  0  0  0  0  0  0  0  0
   -9.2309  -23.0149   27.8009 C   0  0  0  0  0  0  0  0  0  0  0  0
   -9.5414  -24.2236   28.1073 N   0  0  0  0  0  0  0  0  0  0  0  0
   -8.4378  -24.4869   28.7834 C   0  0  0  0  0  0  0  0  0  0  0  0
   -7.1736  -23.4098   28.3004 C   0  0  0  0  0  0  0  0  0  0  0  0
   -7.7211  -22.1743   28.0947 N   0  0  0  0  0  0  0  0  0  0  0  0
   -8.8841  -17.6868   33.7843 H   0  0  0  0  0  0  0  0  0  0  0  0
   -9.9679  -16.2930   34.0697 H   0  0  0  0  0  0  0  0  0  0  0  0
   -8.2584  -16.3580   34.5951 H   0  0  0  0  0  0  0  0  0  0  0  0
   -7.5175  -15.6479   32.8415 H   0  0  0  0  0  0  0  0  0  0  0  0
   -8.0715  -13.5880   32.8947 H   0  0  0  0  0  0  0  0  0  0  0  0
   -9.4057  -14.1141   31.7223 H   0  0  0  0  0  0  0  0  0  0  0  0
   -7.9660  -11.1289   32.5610 H   0  0  0  0  0  0  0  0  0  0  0  0
  -11.7136   -7.8120   34.6507 H   0  0  0  0  0  0  0  0  0  0  0  0
  -10.2113   -4.9960   36.7469 H   0  0  0  0  0  0  0  0  0  0  0  0
   -7.2703  -18.4705   31.8436 H   0  0  0  0  0  0  0  0  0  0  0  0
   -7.8666  -21.9388   26.5225 H   0  0  0  0  0  0  0  0  0  0  0  0
   -8.3654  -25.4671   29.2127 H   0  0  0  0  0  0  0  0  0  0  0  0
   -6.1292  -23.5943   28.1912 H   0  0  0  0  0  0  0  0  0  0  0  0
  1  2  1  0
  2  3  1  0
  3  4  1  0
  4  5  1  0
  5  6  2  0
  5  7  1  0
  7  8  1  0
  8  9  1  0
  9 10  2  0
 10 11  1  0
 11 12  1  0
  2 13  1  0
 13 14  1  0
 14 15  2  0
 14 16  1  0
 16 17  2  0
 17 18  1  0
 18 19  1  0
 19 20  2  0
 20 21  1  0
 21 22  2  0
 22 23  1  0
 11  7  2  0
 23 16  1  0
 23 19  1  0
  1 24  1  0
  1 25  1  0
  1 26  1  0
  2 27  1  0
  3 28  1  0
  3 29  1  0
  4 30  1  0
  8 31  1  0
 10 32  1  0
 13 33  1  0
 17 34  1  0
 21 35  1  0
 22 36  1  0
M  END
>  <Energy>  (573) 
2839.686297298615

>  <compound_id>  (573) 
67954

>  <target_id>  (573) 
1

>  <reference_id>  (573) 
7

>  <inspiration_ids>  (573) 
[7, 45]

>  <energy_score>  (573) 
2839.541705720633

>  <distance_score>  (573) 
5.682681850441325

>  <path>  (573) 
/opt/xchem-fragalysis-2/maxwin/BulkDock/SCRATCH/511022/C67954-P7/C67954-P7.minimised.mol

>  <scratch_subdir>  (573) 
/opt/xchem-fragalysis-2/maxwin/BulkDock/SCRATCH/511022/C67954-P7

>  <fragmenstein_runtime>  (573) 
15.445831298828125

>  <fragmenstein_outcome>  (573) 
too moved

>  <fragmenstein_mode>  (573) 
expansion

>  <fragmenstein_error>  (573) 


$$$$
C67954-P45
     RDKit          3D

 36 38  0  0  0  0  0  0  0  0999 V2000
   -7.7252  -15.7526   33.2611 C   0  0  0  0  0  0  0  0  0  0  0  0
   -9.0748  -14.6751   32.6345 C   0  0  0  0  0  0  0  0  0  0  0  0
   -9.1539  -12.7241   33.0421 C   0  0  0  0  0  0  0  0  0  0  0  0
   -9.1492  -10.8678   32.5245 N   0  0  0  0  0  0  0  0  0  0  0  0
  -10.1331   -9.3893   33.2121 C   0  0  0  0  0  0  0  0  0  0  0  0
  -10.9827   -9.5665   34.0273 O   0  0  0  0  0  0  0  0  0  0  0  0
   -9.8905   -7.6671   32.9912 C   0  0  0  0  0  0  0  0  0  0  0  0
   -8.7259   -7.0531   32.6989 N   0  0  0  0  0  0  0  0  0  0  0  0
   -7.7808   -6.7506   33.5162 N   0  0  0  0  0  0  0  0  0  0  0  0
   -8.5742   -6.4359   34.4938 C   0  0  0  0  0  0  0  0  0  0  0  0
  -10.0417   -6.7237   34.0329 C   0  0  0  0  0  0  0  0  0  0  0  0
  -11.4734   -5.9152   35.0274 Cl  0  0  0  0  0  0  0  0  0  0  0  0
  -10.2490  -15.5947   33.2445 N   0  0  0  0  0  0  0  0  0  0  0  0
  -10.2390  -16.5698   34.3757 C   0  0  0  0  0  0  0  0  0  0  0  0
   -9.3690  -16.8495   35.1659 O   0  0  0  0  0  0  0  0  0  0  0  0
  -11.4673  -17.4575   34.5367 C   0  0  0  0  0  0  0  0  0  0  0  0
  -12.6670  -17.1030   35.0339 C   0  0  0  0  0  0  0  0  0  0  0  0
  -13.8204  -18.4491   35.1794 S   0  0  0  0  0  0  0  0  0  0  0  0
  -12.6429  -19.4986   34.4718 C   0  0  0  0  0  0  0  0  0  0  0  0
  -12.7284  -20.6821   33.9217 N   0  0  0  0  0  0  0  0  0  0  0  0
  -11.5277  -20.8100   33.2720 C   0  0  0  0  0  0  0  0  0  0  0  0
  -10.7318  -19.6945   33.4756 C   0  0  0  0  0  0  0  0  0  0  0  0
  -11.4933  -18.8171   34.1922 N   0  0  0  0  0  0  0  0  0  0  0  0
   -7.3524  -15.5853   34.2812 H   0  0  0  0  0  0  0  0  0  0  0  0
   -6.8204  -15.8763   32.6945 H   0  0  0  0  0  0  0  0  0  0  0  0
   -8.0726  -16.7827   33.2855 H   0  0  0  0  0  0  0  0  0  0  0  0
   -8.7934  -14.6837   31.6252 H   0  0  0  0  0  0  0  0  0  0  0  0
   -8.7523  -12.2661   33.9180 H   0  0  0  0  0  0  0  0  0  0  0  0
   -8.1282  -13.0883   32.9957 H   0  0  0  0  0  0  0  0  0  0  0  0
   -8.5611  -10.5544   31.8115 H   0  0  0  0  0  0  0  0  0  0  0  0
   -8.4107   -6.8907   31.7796 H   0  0  0  0  0  0  0  0  0  0  0  0
   -8.1748   -5.9565   35.3715 H   0  0  0  0  0  0  0  0  0  0  0  0
  -11.1254  -15.6810   32.7375 H   0  0  0  0  0  0  0  0  0  0  0  0
  -12.9700  -16.1172   35.3534 H   0  0  0  0  0  0  0  0  0  0  0  0
  -11.2902  -21.7080   32.7165 H   0  0  0  0  0  0  0  0  0  0  0  0
   -9.7293  -19.4471   33.1875 H   0  0  0  0  0  0  0  0  0  0  0  0
  1  2  1  0
  2  3  1  0
  3  4  1  0
  4  5  1  0
  5  6  2  0
  5  7  1  0
  7  8  1  0
  8  9  1  0
  9 10  2  0
 10 11  1  0
 11 12  1  0
  2 13  1  0
 13 14  1  0
 14 15  2  0
 14 16  1  0
 16 17  2  0
 17 18  1  0
 18 19  1  0
 19 20  2  0
 20 21  1  0
 21 22  2  0
 22 23  1  0
 11  7  2  0
 23 16  1  0
 23 19  1  0
  1 24  1  0
  1 25  1  0
  1 26  1  0
  2 27  1  0
  3 28  1  0
  3 29  1  0
  4 30  1  0
  8 31  1  0
 10 32  1  0
 13 33  1  0
 17 34  1  0
 21 35  1  0
 22 36  1  0
M  END
>  <Energy>  (574) 
444.61339273663128

>  <compound_id>  (574) 
67954

>  <target_id>  (574) 
1

>  <reference_id>  (574) 
45

>  <inspiration_ids>  (574) 
[7, 45]

>  <energy_score>  (574) 
444.4688011586828

>  <distance_score>  (574) 
10.495515899365467

>  <path>  (574) 
/opt/xchem-fragalysis-2/maxwin/BulkDock/SCRATCH/511022/C67954-P45/C67954-P45.minimised.mol

>  <scratch_subdir>  (574) 
/opt/xchem-fragalysis-2/maxwin/BulkDock/SCRATCH/511022/C67954-P45

>  <fragmenstein_runtime>  (574) 
15.872485160827637

>  <fragmenstein_outcome>  (574) 
too moved

>  <fragmenstein_mode>  (574) 
expansion

>  <fragmenstein_error>  (574) 


$$$$
C67956-P7
     RDKit          3D

 26 28  0  0  0  0  0  0  0  0999 V2000
   -8.7515  -14.7090   30.7259 O   0  0  0  0  0  0  0  0  0  0  0  0
   -8.2590  -15.0805   31.7358 C   0  0  0  0  0  0  0  0  0  0  0  0
   -7.6421  -17.4535   31.4476 C   0  0  0  0  0  0  0  0  0  0  0  0
   -7.7135  -18.6380   29.4723 C   0  0  0  0  0  0  0  0  0  0  0  0
   -8.4872  -19.0014   28.2349 C   0  0  0  0  0  0  0  0  0  0  0  0
   -8.1375  -21.1975   27.3264 S   0  0  0  0  0  0  0  0  0  0  0  0
   -6.8030  -21.7745   27.8584 C   0  0  0  0  0  0  0  0  0  0  0  0
   -5.7920  -22.3276   27.2610 N   0  0  0  0  0  0  0  0  0  0  0  0
   -5.2726  -21.3133   26.5691 C   0  0  0  0  0  0  0  0  0  0  0  0
   -5.9477  -20.0108   26.9245 C   0  0  0  0  0  0  0  0  0  0  0  0
   -7.4125  -20.0888   27.9802 N   0  0  0  0  0  0  0  0  0  0  0  0
   -8.2147  -13.4755   32.9494 N   0  0  0  0  0  0  0  0  0  0  0  0
   -8.9545  -11.5605   32.7758 C   0  0  0  0  0  0  0  0  0  0  0  0
   -9.3109  -10.5405   31.9703 N   0  0  0  0  0  0  0  0  0  0  0  0
   -9.7736   -9.0605   33.1037 N   0  0  0  0  0  0  0  0  0  0  0  0
  -10.9579   -8.4976   32.6760 C   0  0  0  0  0  0  0  0  0  0  0  0
  -10.2694   -9.8130   33.0515 C   0  0  0  0  0  0  0  0  0  0  0  0
  -12.0714   -9.9115   34.3880 Cl  0  0  0  0  0  0  0  0  0  0  0  0
   -6.4921  -17.4004   31.4437 H   0  0  0  0  0  0  0  0  0  0  0  0
   -7.4974  -17.9724   32.4424 H   0  0  0  0  0  0  0  0  0  0  0  0
   -9.0608  -18.3190   27.6241 H   0  0  0  0  0  0  0  0  0  0  0  0
   -4.7764  -21.3066   25.6125 H   0  0  0  0  0  0  0  0  0  0  0  0
   -5.6293  -19.0259   27.0508 H   0  0  0  0  0  0  0  0  0  0  0  0
   -7.7293  -13.7435   33.7689 H   0  0  0  0  0  0  0  0  0  0  0  0
   -9.0253   -8.3670   33.2319 H   0  0  0  0  0  0  0  0  0  0  0  0
  -11.4623   -7.7296   33.2154 H   0  0  0  0  0  0  0  0  0  0  0  0
  1  2  2  0
  2  3  1  0
  3  4  1  0
  4  5  2  0
  5  6  1  0
  6  7  1  0
  7  8  2  0
  8  9  1  0
  9 10  2  0
 10 11  1  0
  2 12  1  0
 12 13  1  0
 13 14  2  0
 14 15  1  0
 15 16  1  0
 16 17  2  0
 17 18  1  0
 11  4  1  0
 17 13  1  0
 11  7  1  0
  3 19  1  0
  3 20  1  0
  5 21  1  0
  9 22  1  0
 10 23  1  0
 12 24  1  0
 15 25  1  0
 16 26  1  0
M  END
>  <Energy>  (575) 
2626.4197076969836

>  <compound_id>  (575) 
67956

>  <target_id>  (575) 
1

>  <reference_id>  (575) 
7

>  <inspiration_ids>  (575) 
[7, 45]

>  <energy_score>  (575) 
2579.0903831392807

>  <distance_score>  (575) 
8.572604280847205

>  <path>  (575) 
/opt/xchem-fragalysis-2/maxwin/BulkDock/SCRATCH/511022/C67956-P7/C67956-P7.minimised.mol

>  <scratch_subdir>  (575) 
/opt/xchem-fragalysis-2/maxwin/BulkDock/SCRATCH/511022/C67956-P7

>  <fragmenstein_runtime>  (575) 
8.23081374168396

>  <fragmenstein_outcome>  (575) 
too moved

>  <fragmenstein_mode>  (575) 
expansion

>  <fragmenstein_error>  (575) 


$$$$
C67956-P45
     RDKit          3D

 26 28  0  0  0  0  0  0  0  0999 V2000
   -6.9996  -19.8538   40.9900 O   0  0  0  0  0  0  0  0  0  0  0  0
   -6.7903  -19.5681   39.8410 C   0  0  0  0  0  0  0  0  0  0  0  0
   -5.7610  -20.5745   39.0080 C   0  0  0  0  0  0  0  0  0  0  0  0
   -5.9317  -21.6606   37.9334 C   0  0  0  0  0  0  0  0  0  0  0  0
   -5.8315  -22.9950   38.1665 C   0  0  0  0  0  0  0  0  0  0  0  0
   -5.8047  -24.0141   36.7100 S   0  0  0  0  0  0  0  0  0  0  0  0
   -5.9027  -22.5766   35.7593 C   0  0  0  0  0  0  0  0  0  0  0  0
   -5.9094  -22.3385   34.4761 N   0  0  0  0  0  0  0  0  0  0  0  0
   -6.0616  -20.9762   34.4276 C   0  0  0  0  0  0  0  0  0  0  0  0
   -6.0772  -20.4128   35.6886 C   0  0  0  0  0  0  0  0  0  0  0  0
   -5.9752  -21.4566   36.5506 N   0  0  0  0  0  0  0  0  0  0  0  0
   -7.2141  -18.4173   39.0581 N   0  0  0  0  0  0  0  0  0  0  0  0
   -8.0632  -17.3510   39.3768 C   0  0  0  0  0  0  0  0  0  0  0  0
   -9.0318  -17.0512   38.4910 N   0  0  0  0  0  0  0  0  0  0  0  0
   -9.8219  -16.1812   39.1373 N   0  0  0  0  0  0  0  0  0  0  0  0
   -9.2021  -15.5602   40.1631 C   0  0  0  0  0  0  0  0  0  0  0  0
   -8.0608  -16.3051   40.3763 C   0  0  0  0  0  0  0  0  0  0  0  0
   -6.8886  -15.8279   41.5019 Cl  0  0  0  0  0  0  0  0  0  0  0  0
   -4.8955  -19.9784   38.7115 H   0  0  0  0  0  0  0  0  0  0  0  0
   -5.3275  -21.1321   39.8586 H   0  0  0  0  0  0  0  0  0  0  0  0
   -5.7137  -23.4484   39.1429 H   0  0  0  0  0  0  0  0  0  0  0  0
   -6.1673  -20.4398   33.4970 H   0  0  0  0  0  0  0  0  0  0  0  0
   -6.2062  -19.3933   36.0048 H   0  0  0  0  0  0  0  0  0  0  0  0
   -6.9228  -18.5477   38.0902 H   0  0  0  0  0  0  0  0  0  0  0  0
  -10.7582  -16.0334   38.7777 H   0  0  0  0  0  0  0  0  0  0  0  0
   -9.6174  -14.7029   40.6735 H   0  0  0  0  0  0  0  0  0  0  0  0
  1  2  2  0
  2  3  1  0
  3  4  1  0
  4  5  2  0
  5  6  1  0
  6  7  1  0
  7  8  2  0
  8  9  1  0
  9 10  2  0
 10 11  1  0
  2 12  1  0
 12 13  1  0
 13 14  2  0
 14 15  1  0
 15 16  1  0
 16 17  2  0
 17 18  1  0
 11  4  1  0
 17 13  1  0
 11  7  1  0
  3 19  1  0
  3 20  1  0
  5 21  1  0
  9 22  1  0
 10 23  1  0
 12 24  1  0
 15 25  1  0
 16 26  1  0
M  END
>  <Energy>  (576) 
49.6433367610055

>  <compound_id>  (576) 
67956

>  <target_id>  (576) 
1

>  <reference_id>  (576) 
45

>  <inspiration_ids>  (576) 
[7, 45]

>  <energy_score>  (576) 
2.3140122033244097

>  <distance_score>  (576) 
13.320814310290206

>  <path>  (576) 
/opt/xchem-fragalysis-2/maxwin/BulkDock/SCRATCH/511022/C67956-P45/C67956-P45.minimised.mol

>  <scratch_subdir>  (576) 
/opt/xchem-fragalysis-2/maxwin/BulkDock/SCRATCH/511022/C67956-P45

>  <fragmenstein_runtime>  (576) 
11.555126428604126

>  <fragmenstein_outcome>  (576) 
too moved

>  <fragmenstein_mode>  (576) 
expansion

>  <fragmenstein_error>  (576) 


$$$$
C67948-P7
     RDKit          3D

 39 41  0  0  0  0  0  0  0  0999 V2000
   -7.8129  -16.3372   34.6784 C   0  0  0  0  0  0  0  0  0  0  0  0
   -7.7658  -15.9673   33.1376 C   0  0  0  0  0  0  0  0  0  0  0  0
   -6.7495  -17.7252   32.4018 C   0  0  0  0  0  0  0  0  0  0  0  0
   -6.7205  -19.1692   30.9677 N   0  0  0  0  0  0  0  0  0  0  0  0
   -7.1139  -21.2087   31.0622 C   0  0  0  0  0  0  0  0  0  0  0  0
   -7.3027  -21.7265   32.1809 O   0  0  0  0  0  0  0  0  0  0  0  0
   -7.3644  -22.3206   28.9099 C   0  0  0  0  0  0  0  0  0  0  0  0
   -7.1015  -23.5994   28.4445 C   0  0  0  0  0  0  0  0  0  0  0  0
   -8.4433  -24.8106   28.9355 C   0  0  0  0  0  0  0  0  0  0  0  0
   -9.6124  -24.8797   28.3288 C   0  0  0  0  0  0  0  0  0  0  0  0
   -9.7970  -23.7493   27.5538 C   0  0  0  0  0  0  0  0  0  0  0  0
  -10.9522  -23.4851   26.9762 N   0  0  0  0  0  0  0  0  0  0  0  0
  -11.3985  -22.3948   27.6261 C   0  0  0  0  0  0  0  0  0  0  0  0
  -10.3909  -21.8180   28.3547 C   0  0  0  0  0  0  0  0  0  0  0  0
   -8.9455  -22.4555   27.9858 N   0  0  0  0  0  0  0  0  0  0  0  0
   -8.6443  -14.2943   32.3472 N   0  0  0  0  0  0  0  0  0  0  0  0
   -8.8790  -12.3774   33.0340 C   0  0  0  0  0  0  0  0  0  0  0  0
   -8.5242  -12.1712   34.1152 O   0  0  0  0  0  0  0  0  0  0  0  0
   -9.4861  -10.6372   32.2544 C   0  0  0  0  0  0  0  0  0  0  0  0
  -10.6268   -9.5628   33.2614 N   0  0  0  0  0  0  0  0  0  0  0  0
  -11.1673   -8.8639   32.3552 N   0  0  0  0  0  0  0  0  0  0  0  0
  -10.3646   -7.9035   32.6387 C   0  0  0  0  0  0  0  0  0  0  0  0
   -9.6927   -8.9437   33.1739 C   0  0  0  0  0  0  0  0  0  0  0  0
   -8.5264   -7.1407   33.3558 Cl  0  0  0  0  0  0  0  0  0  0  0  0
   -8.8336  -16.3514   35.0843 H   0  0  0  0  0  0  0  0  0  0  0  0
   -7.1912  -15.6876   35.2756 H   0  0  0  0  0  0  0  0  0  0  0  0
   -7.4595  -17.3550   34.8531 H   0  0  0  0  0  0  0  0  0  0  0  0
   -8.7522  -16.3964   32.9848 H   0  0  0  0  0  0  0  0  0  0  0  0
   -6.9247  -18.3964   33.2451 H   0  0  0  0  0  0  0  0  0  0  0  0
   -5.7351  -17.3368   32.4209 H   0  0  0  0  0  0  0  0  0  0  0  0
   -6.6817  -18.8876   30.0174 H   0  0  0  0  0  0  0  0  0  0  0  0
   -6.1974  -24.1169   28.7250 H   0  0  0  0  0  0  0  0  0  0  0  0
   -8.3898  -25.4011   29.8353 H   0  0  0  0  0  0  0  0  0  0  0  0
  -10.4214  -25.5488   28.5874 H   0  0  0  0  0  0  0  0  0  0  0  0
  -12.4320  -22.0844   27.5801 H   0  0  0  0  0  0  0  0  0  0  0  0
  -10.4306  -21.0881   29.1403 H   0  0  0  0  0  0  0  0  0  0  0  0
   -9.0590  -14.3729   31.4396 H   0  0  0  0  0  0  0  0  0  0  0  0
  -11.1897  -10.0509   33.9719 H   0  0  0  0  0  0  0  0  0  0  0  0
  -10.2947   -7.2558   31.8050 H   0  0  0  0  0  0  0  0  0  0  0  0
  1  2  1  0
  2  3  1  0
  3  4  1  0
  4  5  1  0
  5  6  2  0
  5  7  1  0
  7  8  2  0
  8  9  1  0
  9 10  2  0
 10 11  1  0
 11 12  2  0
 12 13  1  0
 13 14  2  0
 14 15  1  0
  2 16  1  0
 16 17  1  0
 17 18  2  0
 17 19  1  0
 19 20  1  0
 20 21  1  0
 21 22  2  0
 22 23  1  0
 23 24  1  0
 15  7  1  0
 23 19  2  0
 15 11  1  0
  1 25  1  0
  1 26  1  0
  1 27  1  0
  2 28  1  0
  3 29  1  0
  3 30  1  0
  4 31  1  0
  8 32  1  0
  9 33  1  0
 10 34  1  0
 13 35  1  0
 14 36  1  0
 16 37  1  0
 20 38  1  0
 22 39  1  0
M  END
>  <Energy>  (577) 
1825.9205960955005

>  <compound_id>  (577) 
67948

>  <target_id>  (577) 
1

>  <reference_id>  (577) 
7

>  <inspiration_ids>  (577) 
[7, 45]

>  <energy_score>  (577) 
1806.5164735622827

>  <distance_score>  (577) 
7.097432256437442

>  <path>  (577) 
/opt/xchem-fragalysis-2/maxwin/BulkDock/SCRATCH/511022/C67948-P7/C67948-P7.minimised.mol

>  <scratch_subdir>  (577) 
/opt/xchem-fragalysis-2/maxwin/BulkDock/SCRATCH/511022/C67948-P7

>  <fragmenstein_runtime>  (577) 
23.655192852020264

>  <fragmenstein_outcome>  (577) 
too moved

>  <fragmenstein_mode>  (577) 
expansion

>  <fragmenstein_error>  (577) 


$$$$
C67948-P45
     RDKit          3D

 39 41  0  0  0  0  0  0  0  0999 V2000
   -7.2011  -17.8487   34.2284 C   0  0  0  0  0  0  0  0  0  0  0  0
   -6.7639  -17.4740   32.7132 C   0  0  0  0  0  0  0  0  0  0  0  0
   -6.1984  -19.5524   32.3572 C   0  0  0  0  0  0  0  0  0  0  0  0
   -7.2394  -21.1964   31.6485 N   0  0  0  0  0  0  0  0  0  0  0  0
   -7.1070  -22.3970   29.7084 C   0  0  0  0  0  0  0  0  0  0  0  0
   -6.2586  -22.1514   28.7501 O   0  0  0  0  0  0  0  0  0  0  0  0
   -8.1353  -23.8911   29.1959 C   0  0  0  0  0  0  0  0  0  0  0  0
   -7.2746  -24.5930   28.3981 C   0  0  0  0  0  0  0  0  0  0  0  0
   -7.6877  -25.6855   27.5294 C   0  0  0  0  0  0  0  0  0  0  0  0
   -8.9802  -25.9789   27.3612 C   0  0  0  0  0  0  0  0  0  0  0  0
   -9.9471  -25.1092   27.9105 C   0  0  0  0  0  0  0  0  0  0  0  0
  -11.2432  -25.0857   27.6990 N   0  0  0  0  0  0  0  0  0  0  0  0
  -11.6675  -23.9009   28.2104 C   0  0  0  0  0  0  0  0  0  0  0  0
  -10.6252  -23.2086   28.7727 C   0  0  0  0  0  0  0  0  0  0  0  0
   -9.5122  -24.0361   28.7099 N   0  0  0  0  0  0  0  0  0  0  0  0
   -7.8360  -15.7771   33.1929 N   0  0  0  0  0  0  0  0  0  0  0  0
   -7.7739  -13.9221   32.5411 C   0  0  0  0  0  0  0  0  0  0  0  0
   -7.0127  -13.7737   31.6241 O   0  0  0  0  0  0  0  0  0  0  0  0
   -8.7000  -12.0686   32.9884 C   0  0  0  0  0  0  0  0  0  0  0  0
   -9.6620  -10.9219   32.0064 N   0  0  0  0  0  0  0  0  0  0  0  0
  -10.8398   -9.9182   33.0403 N   0  0  0  0  0  0  0  0  0  0  0  0
  -10.1668   -8.8994   33.0359 C   0  0  0  0  0  0  0  0  0  0  0  0
   -9.1223  -10.2938   32.3729 C   0  0  0  0  0  0  0  0  0  0  0  0
   -9.3315   -7.9869   33.2361 Cl  0  0  0  0  0  0  0  0  0  0  0  0
   -8.2844  -18.0037   34.2357 H   0  0  0  0  0  0  0  0  0  0  0  0
   -6.7602  -18.7182   34.6983 H   0  0  0  0  0  0  0  0  0  0  0  0
   -6.9743  -17.0293   34.9193 H   0  0  0  0  0  0  0  0  0  0  0  0
   -5.7753  -17.0109   32.7829 H   0  0  0  0  0  0  0  0  0  0  0  0
   -5.1441  -19.8206   32.4817 H   0  0  0  0  0  0  0  0  0  0  0  0
   -6.4129  -19.9157   33.3836 H   0  0  0  0  0  0  0  0  0  0  0  0
   -7.9118  -21.6030   32.3074 H   0  0  0  0  0  0  0  0  0  0  0  0
   -6.2081  -24.3687   28.3603 H   0  0  0  0  0  0  0  0  0  0  0  0
   -6.9149  -26.2840   27.0519 H   0  0  0  0  0  0  0  0  0  0  0  0
   -9.3064  -26.8101   26.7468 H   0  0  0  0  0  0  0  0  0  0  0  0
  -12.6992  -23.5856   28.1191 H   0  0  0  0  0  0  0  0  0  0  0  0
  -10.6104  -22.2162   29.1965 H   0  0  0  0  0  0  0  0  0  0  0  0
   -8.4321  -15.7985   34.0142 H   0  0  0  0  0  0  0  0  0  0  0  0
   -9.8934  -10.8340   30.9532 H   0  0  0  0  0  0  0  0  0  0  0  0
  -10.7008   -7.9669   32.0524 H   0  0  0  0  0  0  0  0  0  0  0  0
  1  2  1  0
  2  3  1  0
  3  4  1  0
  4  5  1  0
  5  6  2  0
  5  7  1  0
  7  8  2  0
  8  9  1  0
  9 10  2  0
 10 11  1  0
 11 12  2  0
 12 13  1  0
 13 14  2  0
 14 15  1  0
  2 16  1  0
 16 17  1  0
 17 18  2  0
 17 19  1  0
 19 20  1  0
 20 21  1  0
 21 22  2  0
 22 23  1  0
 23 24  1  0
 15  7  1  0
 23 19  2  0
 15 11  1  0
  1 25  1  0
  1 26  1  0
  1 27  1  0
  2 28  1  0
  3 29  1  0
  3 30  1  0
  4 31  1  0
  8 32  1  0
  9 33  1  0
 10 34  1  0
 13 35  1  0
 14 36  1  0
 16 37  1  0
 20 38  1  0
 22 39  1  0
M  END
>  <Energy>  (578) 
2094.4751597083095

>  <compound_id>  (578) 
67948

>  <target_id>  (578) 
1

>  <reference_id>  (578) 
45

>  <inspiration_ids>  (578) 
[7, 45]

>  <energy_score>  (578) 
2075.071037175127

>  <distance_score>  (578) 
7.565533765217571

>  <path>  (578) 
/opt/xchem-fragalysis-2/maxwin/BulkDock/SCRATCH/511022/C67948-P45/C67948-P45.minimised.mol

>  <scratch_subdir>  (578) 
/opt/xchem-fragalysis-2/maxwin/BulkDock/SCRATCH/511022/C67948-P45

>  <fragmenstein_runtime>  (578) 
18.38354253768921

>  <fragmenstein_outcome>  (578) 
too moved

>  <fragmenstein_mode>  (578) 
expansion

>  <fragmenstein_error>  (578) 


$$$$
C36009-P7
     RDKit          3D

 38 42  0  0  0  0  0  0  0  0999 V2000
   -6.5525  -22.0505   27.5812 C   0  0  0  0  0  0  0  0  0  0  0  0
   -7.0662  -20.5067   27.4732 C   0  0  0  0  0  0  0  0  0  0  0  0
   -6.2639  -19.1455   27.0202 C   0  0  0  0  0  0  0  0  0  0  0  0
   -6.6091  -17.4361   28.2308 C   0  0  0  0  0  0  0  0  0  0  0  0
   -7.4920  -15.8204   28.2926 N   0  0  0  0  0  0  0  0  0  0  0  0
   -6.9055  -14.3979   29.0836 C   0  0  0  0  0  0  0  0  0  0  0  0
   -7.1977  -13.9244   30.9326 C   0  0  0  0  0  0  0  0  0  0  0  0
   -7.9472  -14.3825   32.2249 C   0  0  0  0  0  0  0  0  0  0  0  0
   -8.6030  -12.8655   33.0972 C   0  0  0  0  0  0  0  0  0  0  0  0
   -8.2102  -11.6905   32.5149 N   0  0  0  0  0  0  0  0  0  0  0  0
   -6.9145  -12.4297   31.8042 N   0  0  0  0  0  0  0  0  0  0  0  0
   -5.9054  -15.0795   29.6878 N   0  0  0  0  0  0  0  0  0  0  0  0
   -4.8988  -13.4763   29.9844 C   0  0  0  0  0  0  0  0  0  0  0  0
   -5.1620  -12.2125   29.3876 C   0  0  0  0  0  0  0  0  0  0  0  0
   -3.8423  -12.0674   28.7073 C   0  0  0  0  0  0  0  0  0  0  0  0
   -3.3718  -13.0603   29.5710 C   0  0  0  0  0  0  0  0  0  0  0  0
   -5.5919  -16.6990   29.3605 N   0  0  0  0  0  0  0  0  0  0  0  0
   -5.5591  -19.6839   25.8318 C   0  0  0  0  0  0  0  0  0  0  0  0
   -5.2722  -19.1370   24.4613 N   0  0  0  0  0  0  0  0  0  0  0  0
   -4.4735  -20.0073   23.8408 C   0  0  0  0  0  0  0  0  0  0  0  0
   -4.6633  -21.1133   24.5982 C   0  0  0  0  0  0  0  0  0  0  0  0
   -5.0196  -21.0298   25.9100 N   0  0  0  0  0  0  0  0  0  0  0  0
   -5.4487  -22.2230   26.9002 C   0  0  0  0  0  0  0  0  0  0  0  0
   -7.1558  -22.8237   28.0122 H   0  0  0  0  0  0  0  0  0  0  0  0
   -8.0354  -20.9131   27.2709 H   0  0  0  0  0  0  0  0  0  0  0  0
   -8.5425  -15.2584   32.4468 H   0  0  0  0  0  0  0  0  0  0  0  0
   -9.6045  -13.1417   33.1789 H   0  0  0  0  0  0  0  0  0  0  0  0
   -6.1732  -11.7790   31.6097 H   0  0  0  0  0  0  0  0  0  0  0  0
   -5.2709  -13.0828   30.8585 H   0  0  0  0  0  0  0  0  0  0  0  0
   -5.9580  -12.2144   28.6959 H   0  0  0  0  0  0  0  0  0  0  0  0
   -5.3338  -11.5375   30.1851 H   0  0  0  0  0  0  0  0  0  0  0  0
   -4.0677  -12.1342   27.6192 H   0  0  0  0  0  0  0  0  0  0  0  0
   -3.0204  -11.3678   28.8091 H   0  0  0  0  0  0  0  0  0  0  0  0
   -2.7652  -12.3443   30.0997 H   0  0  0  0  0  0  0  0  0  0  0  0
   -2.7038  -13.8898   29.2144 H   0  0  0  0  0  0  0  0  0  0  0  0
   -4.1821  -19.8795   22.8087 H   0  0  0  0  0  0  0  0  0  0  0  0
   -5.1927  -22.0102   24.3818 H   0  0  0  0  0  0  0  0  0  0  0  0
   -5.0818  -23.2292   26.9270 H   0  0  0  0  0  0  0  0  0  0  0  0
  1  2  1  0
  2  3  2  0
  3  4  1  0
  4  5  1  0
  5  6  2  0
  6  7  1  0
  7  8  2  0
  8  9  1  0
  9 10  2  0
 10 11  1  0
  6 12  1  0
 12 13  1  0
 13 14  1  0
 14 15  1  0
 15 16  1  0
 12 17  1  0
  3 18  1  0
 18 19  2  0
 19 20  1  0
 20 21  2  0
 21 22  1  0
 22 23  1  0
 23  1  2  0
 17  4  2  0
 22 18  1  0
 11  7  1  0
 16 13  1  0
  1 24  1  0
  2 25  1  0
  8 26  1  0
  9 27  1  0
 11 28  1  0
 13 29  1  0
 14 30  1  0
 14 31  1  0
 15 32  1  0
 15 33  1  0
 16 34  1  0
 16 35  1  0
 20 36  1  0
 21 37  1  0
 23 38  1  0
M  END
>  <Energy>  (579) 
1183.0625575641598

>  <compound_id>  (579) 
36009

>  <target_id>  (579) 
1

>  <reference_id>  (579) 
7

>  <inspiration_ids>  (579) 
[7, 45]

>  <energy_score>  (579) 
1085.0402440038179

>  <distance_score>  (579) 
10.531423092569252

>  <path>  (579) 
/opt/xchem-fragalysis-2/maxwin/BulkDock/SCRATCH/511022/C36009-P7/C36009-P7.minimised.mol

>  <scratch_subdir>  (579) 
/opt/xchem-fragalysis-2/maxwin/BulkDock/SCRATCH/511022/C36009-P7

>  <fragmenstein_runtime>  (579) 
20.099661827087402

>  <fragmenstein_outcome>  (579) 
too moved

>  <fragmenstein_mode>  (579) 
expansion

>  <fragmenstein_error>  (579) 


$$$$
C36009-P45
     RDKit          3D

 38 42  0  0  0  0  0  0  0  0999 V2000
   -5.6773  -15.4371   31.1916 C   0  0  0  0  0  0  0  0  0  0  0  0
   -5.8348  -16.2589   32.6229 C   0  0  0  0  0  0  0  0  0  0  0  0
   -7.1763  -16.0920   32.7679 C   0  0  0  0  0  0  0  0  0  0  0  0
   -7.7237  -14.2253   32.5096 C   0  0  0  0  0  0  0  0  0  0  0  0
   -8.8333  -12.8559   33.1746 N   0  0  0  0  0  0  0  0  0  0  0  0
   -8.7059  -11.4221   32.7003 C   0  0  0  0  0  0  0  0  0  0  0  0
   -9.7820   -9.8482   32.6909 C   0  0  0  0  0  0  0  0  0  0  0  0
   -9.7983   -8.1020   32.9110 C   0  0  0  0  0  0  0  0  0  0  0  0
   -9.0829   -7.1852   33.4756 C   0  0  0  0  0  0  0  0  0  0  0  0
  -10.3605   -7.3214   33.7881 N   0  0  0  0  0  0  0  0  0  0  0  0
  -10.4983   -9.1900   33.6381 N   0  0  0  0  0  0  0  0  0  0  0  0
   -7.5705  -11.5949   31.9097 N   0  0  0  0  0  0  0  0  0  0  0  0
   -7.8717  -10.2689   30.5099 C   0  0  0  0  0  0  0  0  0  0  0  0
   -8.3676   -9.5036   29.1527 C   0  0  0  0  0  0  0  0  0  0  0  0
   -6.8411   -9.1934   28.8422 C   0  0  0  0  0  0  0  0  0  0  0  0
   -6.5483   -9.9708   30.0268 C   0  0  0  0  0  0  0  0  0  0  0  0
   -6.9136  -13.1562   31.7627 N   0  0  0  0  0  0  0  0  0  0  0  0
   -6.7431  -17.4713   31.4953 C   0  0  0  0  0  0  0  0  0  0  0  0
   -7.1645  -18.3534   30.5131 N   0  0  0  0  0  0  0  0  0  0  0  0
   -7.7090  -18.1943   28.9659 C   0  0  0  0  0  0  0  0  0  0  0  0
   -6.5019  -17.5371   28.6680 C   0  0  0  0  0  0  0  0  0  0  0  0
   -5.8565  -17.1320   30.0057 N   0  0  0  0  0  0  0  0  0  0  0  0
   -5.5459  -15.9004   30.0197 C   0  0  0  0  0  0  0  0  0  0  0  0
   -5.8234  -14.4037   30.9258 H   0  0  0  0  0  0  0  0  0  0  0  0
   -5.1138  -16.1357   33.4300 H   0  0  0  0  0  0  0  0  0  0  0  0
  -10.4488   -7.5653   32.0226 H   0  0  0  0  0  0  0  0  0  0  0  0
   -8.3252   -6.6936   34.0501 H   0  0  0  0  0  0  0  0  0  0  0  0
  -11.2100   -9.6503   34.2193 H   0  0  0  0  0  0  0  0  0  0  0  0
   -8.9597  -10.4549   30.5442 H   0  0  0  0  0  0  0  0  0  0  0  0
   -9.3594   -9.0475   29.2949 H   0  0  0  0  0  0  0  0  0  0  0  0
   -8.7422   -9.6186   28.1283 H   0  0  0  0  0  0  0  0  0  0  0  0
   -6.5629   -9.3245   27.7894 H   0  0  0  0  0  0  0  0  0  0  0  0
   -6.0986   -8.4029   29.0227 H   0  0  0  0  0  0  0  0  0  0  0  0
   -6.0235  -10.8814   29.8858 H   0  0  0  0  0  0  0  0  0  0  0  0
   -6.0489   -9.3152   30.7399 H   0  0  0  0  0  0  0  0  0  0  0  0
   -8.3365  -18.7864   28.3269 H   0  0  0  0  0  0  0  0  0  0  0  0
   -6.9005  -16.6684   28.1921 H   0  0  0  0  0  0  0  0  0  0  0  0
   -5.9536  -15.2696   29.2359 H   0  0  0  0  0  0  0  0  0  0  0  0
  1  2  1  0
  2  3  2  0
  3  4  1  0
  4  5  1  0
  5  6  2  0
  6  7  1  0
  7  8  2  0
  8  9  1  0
  9 10  2  0
 10 11  1  0
  6 12  1  0
 12 13  1  0
 13 14  1  0
 14 15  1  0
 15 16  1  0
 12 17  1  0
  3 18  1  0
 18 19  2  0
 19 20  1  0
 20 21  2  0
 21 22  1  0
 22 23  1  0
 23  1  2  0
 17  4  2  0
 22 18  1  0
 11  7  1  0
 16 13  1  0
  1 24  1  0
  2 25  1  0
  8 26  1  0
  9 27  1  0
 11 28  1  0
 13 29  1  0
 14 30  1  0
 14 31  1  0
 15 32  1  0
 15 33  1  0
 16 34  1  0
 16 35  1  0
 20 36  1  0
 21 37  1  0
 23 38  1  0
M  END
>  <Energy>  (580) 
1499.7526646693784

>  <compound_id>  (580) 
36009

>  <target_id>  (580) 
1

>  <reference_id>  (580) 
45

>  <inspiration_ids>  (580) 
[7, 45]

>  <energy_score>  (580) 
1401.7303511090367

>  <distance_score>  (580) 
10.237529085605322

>  <path>  (580) 
/opt/xchem-fragalysis-2/maxwin/BulkDock/SCRATCH/511022/C36009-P45/C36009-P45.minimised.mol

>  <scratch_subdir>  (580) 
/opt/xchem-fragalysis-2/maxwin/BulkDock/SCRATCH/511022/C36009-P45

>  <fragmenstein_runtime>  (580) 
23.230041980743408

>  <fragmenstein_outcome>  (580) 
too moved

>  <fragmenstein_mode>  (580) 
expansion

>  <fragmenstein_error>  (580) 


$$$$
C67961-P7
     RDKit          3D

 40 43  0  0  0  0  0  0  0  0999 V2000
   -7.4395  -17.5547   33.3076 O   0  0  0  0  0  0  0  0  0  0  0  0
   -7.7844  -17.0356   32.2541 C   0  0  0  0  0  0  0  0  0  0  0  0
   -8.3474  -15.0053   31.8953 N   0  0  0  0  0  0  0  0  0  0  0  0
   -8.3814  -13.2970   32.9670 C   0  0  0  0  0  0  0  0  0  0  0  0
   -7.0964  -12.6481   32.0408 C   0  0  0  0  0  0  0  0  0  0  0  0
   -7.8622  -11.5807   32.4230 C   0  0  0  0  0  0  0  0  0  0  0  0
   -8.5548  -10.9102   31.6035 N   0  0  0  0  0  0  0  0  0  0  0  0
   -9.2112  -11.4392   32.5042 N   0  0  0  0  0  0  0  0  0  0  0  0
   -9.6508   -9.5406   33.2006 C   0  0  0  0  0  0  0  0  0  0  0  0
  -10.3160   -7.9721   33.0883 C   0  0  0  0  0  0  0  0  0  0  0  0
  -10.2346   -6.5894   34.3781 C   0  0  0  0  0  0  0  0  0  0  0  0
   -8.5129   -6.2096   34.8634 C   0  0  0  0  0  0  0  0  0  0  0  0
   -8.0622   -6.4945   33.6066 O   0  0  0  0  0  0  0  0  0  0  0  0
   -8.7671   -7.6342   32.9586 C   0  0  0  0  0  0  0  0  0  0  0  0
   -7.6357  -18.3547   30.3505 C   0  0  0  0  0  0  0  0  0  0  0  0
   -8.5142  -19.3231   28.9712 C   0  0  0  0  0  0  0  0  0  0  0  0
  -10.0357  -20.7751   29.0883 C   0  0  0  0  0  0  0  0  0  0  0  0
   -9.8141  -21.5526   28.0294 C   0  0  0  0  0  0  0  0  0  0  0  0
   -8.2635  -20.8208   27.4706 N   0  0  0  0  0  0  0  0  0  0  0  0
   -7.0871  -21.3569   27.6083 C   0  0  0  0  0  0  0  0  0  0  0  0
   -6.8513  -19.9090   27.0348 C   0  0  0  0  0  0  0  0  0  0  0  0
   -7.9586  -18.4460   27.4827 N   0  0  0  0  0  0  0  0  0  0  0  0
   -8.2043  -19.0649   28.5117 C   0  0  0  0  0  0  0  0  0  0  0  0
   -8.5088  -14.8149   30.9368 H   0  0  0  0  0  0  0  0  0  0  0  0
   -6.6734  -13.2683   31.2534 H   0  0  0  0  0  0  0  0  0  0  0  0
   -8.3666  -11.6623   33.8325 H   0  0  0  0  0  0  0  0  0  0  0  0
  -10.7047   -9.7121   33.1195 H   0  0  0  0  0  0  0  0  0  0  0  0
  -11.0825   -8.3666   33.6154 H   0  0  0  0  0  0  0  0  0  0  0  0
  -10.6454   -7.6990   32.0444 H   0  0  0  0  0  0  0  0  0  0  0  0
  -10.7896   -5.7290   34.8301 H   0  0  0  0  0  0  0  0  0  0  0  0
  -11.0497   -6.9391   35.0334 H   0  0  0  0  0  0  0  0  0  0  0  0
   -8.2068   -5.2672   35.2970 H   0  0  0  0  0  0  0  0  0  0  0  0
   -7.9477   -6.7397   35.6563 H   0  0  0  0  0  0  0  0  0  0  0  0
   -7.7316   -7.5905   32.6226 H   0  0  0  0  0  0  0  0  0  0  0  0
   -9.0562   -7.1032   32.0554 H   0  0  0  0  0  0  0  0  0  0  0  0
   -9.6480  -20.2612   29.5550 H   0  0  0  0  0  0  0  0  0  0  0  0
  -10.8292  -21.1155   29.8822 H   0  0  0  0  0  0  0  0  0  0  0  0
  -10.2097  -22.5543   27.8388 H   0  0  0  0  0  0  0  0  0  0  0  0
   -6.6307  -22.3443   27.5309 H   0  0  0  0  0  0  0  0  0  0  0  0
   -5.8693  -19.7102   26.6538 H   0  0  0  0  0  0  0  0  0  0  0  0
  1  2  2  0
  2  3  1  0
  3  4  1  0
  4  5  2  0
  5  6  1  0
  6  7  2  0
  7  8  1  0
  8  9  1  0
  9 10  1  0
 10 11  1  0
 11 12  1  0
 12 13  1  0
 13 14  1  0
  2 15  1  0
 15 16  2  0
 16 17  1  0
 17 18  2  0
 18 19  1  0
 19 20  1  0
 20 21  2  0
 21 22  1  0
 22 23  2  0
  8  4  1  0
 14  9  1  0
 23 15  1  0
 23 19  1  0
  3 24  1  0
  5 25  1  0
  6 26  1  0
  9 27  1  0
 10 28  1  0
 10 29  1  0
 11 30  1  0
 11 31  1  0
 12 32  1  0
 12 33  1  0
 14 34  1  0
 14 35  1  0
 16 36  1  0
 17 37  1  0
 18 38  1  0
 20 39  1  0
 21 40  1  0
M  END
>  <Energy>  (581) 
3327.8789782523531

>  <compound_id>  (581) 
67961

>  <target_id>  (581) 
1

>  <reference_id>  (581) 
7

>  <inspiration_ids>  (581) 
[7, 45]

>  <energy_score>  (581) 
3166.7863401134337

>  <distance_score>  (581) 
9.667313162363687

>  <path>  (581) 
/opt/xchem-fragalysis-2/maxwin/BulkDock/SCRATCH/511022/C67961-P7/C67961-P7.minimised.mol

>  <scratch_subdir>  (581) 
/opt/xchem-fragalysis-2/maxwin/BulkDock/SCRATCH/511022/C67961-P7

>  <fragmenstein_runtime>  (581) 
19.441407680511475

>  <fragmenstein_outcome>  (581) 
too moved

>  <fragmenstein_mode>  (581) 
expansion

>  <fragmenstein_error>  (581) 


$$$$
C67961-P45
     RDKit          3D

 40 43  0  0  0  0  0  0  0  0999 V2000
    0.7711  -13.2537   29.0672 O   0  0  0  0  0  0  0  0  0  0  0  0
   -0.4212  -13.3985   28.9937 C   0  0  0  0  0  0  0  0  0  0  0  0
   -1.5137  -12.4497   29.2208 N   0  0  0  0  0  0  0  0  0  0  0  0
   -1.4969  -11.1212   29.6811 C   0  0  0  0  0  0  0  0  0  0  0  0
   -0.3969  -10.4196   30.1506 C   0  0  0  0  0  0  0  0  0  0  0  0
   -0.8655   -9.2000   30.6659 C   0  0  0  0  0  0  0  0  0  0  0  0
   -2.1777   -9.0827   30.5268 N   0  0  0  0  0  0  0  0  0  0  0  0
   -2.5507  -10.2245   29.8894 N   0  0  0  0  0  0  0  0  0  0  0  0
   -3.9318  -10.2752   29.4349 C   0  0  0  0  0  0  0  0  0  0  0  0
   -4.9138   -9.5063   30.3524 C   0  0  0  0  0  0  0  0  0  0  0  0
   -5.1319   -8.0717   29.8744 C   0  0  0  0  0  0  0  0  0  0  0  0
   -5.7002   -8.0862   28.4587 C   0  0  0  0  0  0  0  0  0  0  0  0
   -5.3330   -9.2703   27.7290 O   0  0  0  0  0  0  0  0  0  0  0  0
   -4.0050   -9.7155   28.0084 C   0  0  0  0  0  0  0  0  0  0  0  0
   -0.8529  -14.8584   28.7140 C   0  0  0  0  0  0  0  0  0  0  0  0
   -0.6037  -15.7386   29.7214 C   0  0  0  0  0  0  0  0  0  0  0  0
   -0.6286  -17.1897   29.5500 C   0  0  0  0  0  0  0  0  0  0  0  0
   -0.8435  -17.6945   28.3269 C   0  0  0  0  0  0  0  0  0  0  0  0
   -1.1049  -16.8156   27.2861 N   0  0  0  0  0  0  0  0  0  0  0  0
   -1.3759  -17.1099   25.9780 C   0  0  0  0  0  0  0  0  0  0  0  0
   -1.6619  -15.9069   25.3846 C   0  0  0  0  0  0  0  0  0  0  0  0
   -1.5368  -14.8719   26.2798 N   0  0  0  0  0  0  0  0  0  0  0  0
   -1.1508  -15.4157   27.4185 C   0  0  0  0  0  0  0  0  0  0  0  0
   -2.3917  -12.8944   28.9874 H   0  0  0  0  0  0  0  0  0  0  0  0
    0.6244  -10.7774   30.1579 H   0  0  0  0  0  0  0  0  0  0  0  0
   -0.3028   -8.4043   31.1369 H   0  0  0  0  0  0  0  0  0  0  0  0
   -4.2197  -11.3327   29.4463 H   0  0  0  0  0  0  0  0  0  0  0  0
   -4.5948   -9.5280   31.3988 H   0  0  0  0  0  0  0  0  0  0  0  0
   -5.8704  -10.0246   30.2866 H   0  0  0  0  0  0  0  0  0  0  0  0
   -5.7743   -7.4949   30.5423 H   0  0  0  0  0  0  0  0  0  0  0  0
   -4.1758   -7.5360   29.8641 H   0  0  0  0  0  0  0  0  0  0  0  0
   -6.7938   -8.0592   28.4821 H   0  0  0  0  0  0  0  0  0  0  0  0
   -5.3637   -7.2077   27.8978 H   0  0  0  0  0  0  0  0  0  0  0  0
   -3.7546  -10.5026   27.2884 H   0  0  0  0  0  0  0  0  0  0  0  0
   -3.3048   -8.8889   27.8315 H   0  0  0  0  0  0  0  0  0  0  0  0
   -0.2373  -15.3827   30.6829 H   0  0  0  0  0  0  0  0  0  0  0  0
   -0.4003  -17.8232   30.4013 H   0  0  0  0  0  0  0  0  0  0  0  0
   -0.8304  -18.7557   28.1058 H   0  0  0  0  0  0  0  0  0  0  0  0
   -1.3644  -18.1194   25.5951 H   0  0  0  0  0  0  0  0  0  0  0  0
   -1.9414  -15.7244   24.3541 H   0  0  0  0  0  0  0  0  0  0  0  0
  1  2  2  0
  2  3  1  0
  3  4  1  0
  4  5  2  0
  5  6  1  0
  6  7  2  0
  7  8  1  0
  8  9  1  0
  9 10  1  0
 10 11  1  0
 11 12  1  0
 12 13  1  0
 13 14  1  0
  2 15  1  0
 15 16  2  0
 16 17  1  0
 17 18  2  0
 18 19  1  0
 19 20  1  0
 20 21  2  0
 21 22  1  0
 22 23  2  0
  8  4  1  0
 14  9  1  0
 23 15  1  0
 23 19  1  0
  3 24  1  0
  5 25  1  0
  6 26  1  0
  9 27  1  0
 10 28  1  0
 10 29  1  0
 11 30  1  0
 11 31  1  0
 12 32  1  0
 12 33  1  0
 14 34  1  0
 14 35  1  0
 16 36  1  0
 17 37  1  0
 18 38  1  0
 20 39  1  0
 21 40  1  0
M  END
>  <Energy>  (582) 
87.268369835586896

>  <compound_id>  (582) 
67961

>  <target_id>  (582) 
1

>  <reference_id>  (582) 
45

>  <inspiration_ids>  (582) 
[7, 45]

>  <energy_score>  (582) 
-73.82426830331838

>  <distance_score>  (582) 
13.853280472304567

>  <path>  (582) 
/opt/xchem-fragalysis-2/maxwin/BulkDock/SCRATCH/511022/C67961-P45/C67961-P45.minimised.mol

>  <scratch_subdir>  (582) 
/opt/xchem-fragalysis-2/maxwin/BulkDock/SCRATCH/511022/C67961-P45

>  <fragmenstein_runtime>  (582) 
20.16999053955078

>  <fragmenstein_outcome>  (582) 
too moved

>  <fragmenstein_mode>  (582) 
expansion

>  <fragmenstein_error>  (582) 


$$$$
C67962-P7
     RDKit          3D

 42 45  0  0  0  0  0  0  0  0999 V2000
   -8.6644  -12.4077   33.9537 O   0  0  0  0  0  0  0  0  0  0  0  0
   -8.9690  -12.5004   32.9047 C   0  0  0  0  0  0  0  0  0  0  0  0
   -8.9739  -14.3509   31.9416 N   0  0  0  0  0  0  0  0  0  0  0  0
   -8.3605  -16.2929   32.4761 C   0  0  0  0  0  0  0  0  0  0  0  0
   -7.7108  -17.9277   31.0118 C   0  0  0  0  0  0  0  0  0  0  0  0
   -7.8705  -18.8571   29.5571 C   0  0  0  0  0  0  0  0  0  0  0  0
   -9.9672  -20.3134   29.2997 S   0  0  0  0  0  0  0  0  0  0  0  0
   -9.0742  -18.6312   28.1084 C   0  0  0  0  0  0  0  0  0  0  0  0
   -8.0869  -18.2990   27.4413 N   0  0  0  0  0  0  0  0  0  0  0  0
   -6.8955  -19.6479   26.9270 C   0  0  0  0  0  0  0  0  0  0  0  0
   -7.6267  -20.0338   27.8812 C   0  0  0  0  0  0  0  0  0  0  0  0
   -8.0105  -18.4107   29.0333 N   0  0  0  0  0  0  0  0  0  0  0  0
   -9.6353  -10.7235   32.2505 N   0  0  0  0  0  0  0  0  0  0  0  0
   -9.9670   -8.9973   33.2081 C   0  0  0  0  0  0  0  0  0  0  0  0
   -9.8119   -7.5148   32.5761 C   0  0  0  0  0  0  0  0  0  0  0  0
   -8.4415   -7.0985   32.8492 C   0  0  0  0  0  0  0  0  0  0  0  0
   -8.6658   -6.8787   34.0695 N   0  0  0  0  0  0  0  0  0  0  0  0
  -10.0774   -7.1642   33.8162 N   0  0  0  0  0  0  0  0  0  0  0  0
  -10.9708   -6.0200   35.1089 C   0  0  0  0  0  0  0  0  0  0  0  0
  -11.5260   -4.1794   35.1216 C   0  0  0  0  0  0  0  0  0  0  0  0
  -11.0645   -2.9026   35.9325 C   0  0  0  0  0  0  0  0  0  0  0  0
  -11.1136   -3.2254   37.3951 C   0  0  0  0  0  0  0  0  0  0  0  0
  -11.0087   -4.6312   37.5149 O   0  0  0  0  0  0  0  0  0  0  0  0
  -10.3373   -5.3345   36.3952 C   0  0  0  0  0  0  0  0  0  0  0  0
   -9.2003  -14.2508   30.9618 H   0  0  0  0  0  0  0  0  0  0  0  0
   -7.4670  -16.1260   33.1149 H   0  0  0  0  0  0  0  0  0  0  0  0
   -9.1397  -16.5697   33.2148 H   0  0  0  0  0  0  0  0  0  0  0  0
   -6.8539  -19.1619   30.3636 H   0  0  0  0  0  0  0  0  0  0  0  0
   -5.8388  -19.5589   26.8150 H   0  0  0  0  0  0  0  0  0  0  0  0
   -8.1772  -20.9734   27.4657 H   0  0  0  0  0  0  0  0  0  0  0  0
   -9.8267  -10.7975   31.2670 H   0  0  0  0  0  0  0  0  0  0  0  0
  -10.3351   -7.4036   31.6085 H   0  0  0  0  0  0  0  0  0  0  0  0
   -7.5045   -6.8000   32.4127 H   0  0  0  0  0  0  0  0  0  0  0  0
   -9.9870   -5.7847   34.9132 H   0  0  0  0  0  0  0  0  0  0  0  0
  -12.3875   -4.3368   35.7881 H   0  0  0  0  0  0  0  0  0  0  0  0
  -11.6741   -3.6744   34.1658 H   0  0  0  0  0  0  0  0  0  0  0  0
  -11.7516   -2.0703   35.7297 H   0  0  0  0  0  0  0  0  0  0  0  0
  -10.0776   -2.5339   35.6341 H   0  0  0  0  0  0  0  0  0  0  0  0
  -12.0663   -2.9224   37.8414 H   0  0  0  0  0  0  0  0  0  0  0  0
  -10.3168   -2.7296   37.9565 H   0  0  0  0  0  0  0  0  0  0  0  0
   -9.6704   -4.5553   36.1780 H   0  0  0  0  0  0  0  0  0  0  0  0
   -9.6442   -6.0605   36.7176 H   0  0  0  0  0  0  0  0  0  0  0  0
  1  2  2  0
  2  3  1  0
  3  4  1  0
  4  5  1  0
  5  6  2  0
  6  7  1  0
  7  8  1  0
  8  9  2  0
  9 10  1  0
 10 11  2  0
 11 12  1  0
  2 13  1  0
 13 14  1  0
 14 15  2  0
 15 16  1  0
 16 17  2  0
 17 18  1  0
 18 19  1  0
 19 20  1  0
 20 21  1  0
 21 22  1  0
 22 23  1  0
 23 24  1  0
 12  5  1  0
 18 14  1  0
 24 19  1  0
 12  8  1  0
  3 25  1  0
  4 26  1  0
  4 27  1  0
  6 28  1  0
 10 29  1  0
 11 30  1  0
 13 31  1  0
 15 32  1  0
 16 33  1  0
 19 34  1  0
 20 35  1  0
 20 36  1  0
 21 37  1  0
 21 38  1  0
 22 39  1  0
 22 40  1  0
 24 41  1  0
 24 42  1  0
M  END
>  <Energy>  (583) 
2952.7187245146647

>  <compound_id>  (583) 
67962

>  <target_id>  (583) 
1

>  <reference_id>  (583) 
7

>  <inspiration_ids>  (583) 
[7, 45]

>  <energy_score>  (583) 
2898.3864864881043

>  <distance_score>  (583) 
7.58955410294605

>  <path>  (583) 
/opt/xchem-fragalysis-2/maxwin/BulkDock/SCRATCH/511022/C67962-P7/C67962-P7.minimised.mol

>  <scratch_subdir>  (583) 
/opt/xchem-fragalysis-2/maxwin/BulkDock/SCRATCH/511022/C67962-P7

>  <fragmenstein_runtime>  (583) 
16.882763862609863

>  <fragmenstein_outcome>  (583) 
too moved

>  <fragmenstein_mode>  (583) 
expansion

>  <fragmenstein_error>  (583) 


$$$$
C67962-P45
     RDKit          3D

 42 45  0  0  0  0  0  0  0  0999 V2000
   -7.7608  -11.5153   32.2803 O   0  0  0  0  0  0  0  0  0  0  0  0
   -8.8936  -11.6820   32.5918 C   0  0  0  0  0  0  0  0  0  0  0  0
   -9.4518  -13.7473   32.6639 N   0  0  0  0  0  0  0  0  0  0  0  0
   -8.4532  -15.6888   32.1306 C   0  0  0  0  0  0  0  0  0  0  0  0
   -7.8227  -17.6476   30.8894 C   0  0  0  0  0  0  0  0  0  0  0  0
   -7.8305  -18.8554   29.5618 C   0  0  0  0  0  0  0  0  0  0  0  0
   -9.9834  -20.3061   29.6702 S   0  0  0  0  0  0  0  0  0  0  0  0
   -9.0308  -19.8194   28.2685 C   0  0  0  0  0  0  0  0  0  0  0  0
   -9.1526  -21.1192   27.7871 N   0  0  0  0  0  0  0  0  0  0  0  0
   -7.9192  -21.5841   27.7922 C   0  0  0  0  0  0  0  0  0  0  0  0
   -7.6876  -20.2537   27.9482 C   0  0  0  0  0  0  0  0  0  0  0  0
   -7.9919  -18.4873   28.9393 N   0  0  0  0  0  0  0  0  0  0  0  0
  -10.0520   -9.9808   33.0238 N   0  0  0  0  0  0  0  0  0  0  0  0
   -9.6869   -8.2000   33.2038 C   0  0  0  0  0  0  0  0  0  0  0  0
   -9.0172   -7.0990   32.9160 C   0  0  0  0  0  0  0  0  0  0  0  0
  -10.1819   -7.1946   32.0751 C   0  0  0  0  0  0  0  0  0  0  0  0
  -11.2463   -6.7096   32.6255 N   0  0  0  0  0  0  0  0  0  0  0  0
  -10.7329   -6.8515   33.8802 N   0  0  0  0  0  0  0  0  0  0  0  0
  -11.3028   -5.6562   35.0711 C   0  0  0  0  0  0  0  0  0  0  0  0
  -12.8187   -5.5155   35.4062 C   0  0  0  0  0  0  0  0  0  0  0  0
  -13.2472   -4.3699   36.6730 C   0  0  0  0  0  0  0  0  0  0  0  0
  -12.1217   -3.6031   37.3259 C   0  0  0  0  0  0  0  0  0  0  0  0
  -11.1317   -3.2791   36.3738 O   0  0  0  0  0  0  0  0  0  0  0  0
  -11.4391   -3.8173   35.0845 C   0  0  0  0  0  0  0  0  0  0  0  0
  -10.3749  -13.8183   33.0273 H   0  0  0  0  0  0  0  0  0  0  0  0
   -9.0879  -16.1618   32.9144 H   0  0  0  0  0  0  0  0  0  0  0  0
   -7.5637  -15.5363   32.7927 H   0  0  0  0  0  0  0  0  0  0  0  0
   -6.8683  -18.9959   30.3437 H   0  0  0  0  0  0  0  0  0  0  0  0
   -7.5042  -22.4736   27.3443 H   0  0  0  0  0  0  0  0  0  0  0  0
   -6.9738  -19.9670   27.0763 H   0  0  0  0  0  0  0  0  0  0  0  0
  -10.9572  -10.2650   33.3548 H   0  0  0  0  0  0  0  0  0  0  0  0
   -7.9849   -6.9667   32.6581 H   0  0  0  0  0  0  0  0  0  0  0  0
  -10.3687   -7.3058   31.0030 H   0  0  0  0  0  0  0  0  0  0  0  0
  -10.5535   -5.7166   35.8077 H   0  0  0  0  0  0  0  0  0  0  0  0
  -13.4075   -6.3987   35.4940 H   0  0  0  0  0  0  0  0  0  0  0  0
  -13.2063   -5.2246   34.4460 H   0  0  0  0  0  0  0  0  0  0  0  0
  -14.0428   -4.6880   37.3673 H   0  0  0  0  0  0  0  0  0  0  0  0
  -13.8575   -3.5696   36.3363 H   0  0  0  0  0  0  0  0  0  0  0  0
  -11.6815   -4.1063   38.1846 H   0  0  0  0  0  0  0  0  0  0  0  0
  -12.5021   -2.6571   37.7311 H   0  0  0  0  0  0  0  0  0  0  0  0
  -12.3816   -3.5678   34.7111 H   0  0  0  0  0  0  0  0  0  0  0  0
  -10.9465   -3.1206   34.3911 H   0  0  0  0  0  0  0  0  0  0  0  0
  1  2  2  0
  2  3  1  0
  3  4  1  0
  4  5  1  0
  5  6  2  0
  6  7  1  0
  7  8  1  0
  8  9  2  0
  9 10  1  0
 10 11  2  0
 11 12  1  0
  2 13  1  0
 13 14  1  0
 14 15  2  0
 15 16  1  0
 16 17  2  0
 17 18  1  0
 18 19  1  0
 19 20  1  0
 20 21  1  0
 21 22  1  0
 22 23  1  0
 23 24  1  0
 12  5  1  0
 18 14  1  0
 24 19  1  0
 12  8  1  0
  3 25  1  0
  4 26  1  0
  4 27  1  0
  6 28  1  0
 10 29  1  0
 11 30  1  0
 13 31  1  0
 15 32  1  0
 16 33  1  0
 19 34  1  0
 20 35  1  0
 20 36  1  0
 21 37  1  0
 21 38  1  0
 22 39  1  0
 22 40  1  0
 24 41  1  0
 24 42  1  0
M  END
>  <Energy>  (584) 
3100.001270516113

>  <compound_id>  (584) 
67962

>  <target_id>  (584) 
1

>  <reference_id>  (584) 
45

>  <inspiration_ids>  (584) 
[7, 45]

>  <energy_score>  (584) 
3045.6690324895903

>  <distance_score>  (584) 
7.265369466487221

>  <path>  (584) 
/opt/xchem-fragalysis-2/maxwin/BulkDock/SCRATCH/511022/C67962-P45/C67962-P45.minimised.mol

>  <scratch_subdir>  (584) 
/opt/xchem-fragalysis-2/maxwin/BulkDock/SCRATCH/511022/C67962-P45

>  <fragmenstein_runtime>  (584) 
14.64690899848938

>  <fragmenstein_outcome>  (584) 
too moved

>  <fragmenstein_mode>  (584) 
expansion

>  <fragmenstein_error>  (584) 


$$$$
C67963-P7
     RDKit          3D

 38 40  0  0  0  0  0  0  0  0999 V2000
   -4.7859   -7.2546   33.5680 C   0  0  0  0  0  0  0  0  0  0  0  0
   -6.0231   -6.7245   32.7826 C   0  0  0  0  0  0  0  0  0  0  0  0
   -5.6119   -6.7952   31.2743 C   0  0  0  0  0  0  0  0  0  0  0  0
   -7.7334   -6.9367   33.2150 C   0  0  0  0  0  0  0  0  0  0  0  0
   -9.0651   -7.8782   33.1379 C   0  0  0  0  0  0  0  0  0  0  0  0
   -9.7929   -9.6144   32.8067 C   0  0  0  0  0  0  0  0  0  0  0  0
   -8.9642  -11.3652   32.5730 C   0  0  0  0  0  0  0  0  0  0  0  0
   -8.0997  -13.3844   32.9279 C   0  0  0  0  0  0  0  0  0  0  0  0
   -7.3678  -13.5216   33.8003 O   0  0  0  0  0  0  0  0  0  0  0  0
   -8.2744  -15.1372   31.9915 N   0  0  0  0  0  0  0  0  0  0  0  0
   -7.2641  -17.1821   32.1943 C   0  0  0  0  0  0  0  0  0  0  0  0
   -6.8724  -18.7204   30.5522 C   0  0  0  0  0  0  0  0  0  0  0  0
   -5.6542  -20.1821   30.6705 C   0  0  0  0  0  0  0  0  0  0  0  0
   -5.3525  -21.6352   28.4451 S   0  0  0  0  0  0  0  0  0  0  0  0
   -7.4045  -20.9371   27.8565 C   0  0  0  0  0  0  0  0  0  0  0  0
   -8.2810  -22.0901   27.9220 N   0  0  0  0  0  0  0  0  0  0  0  0
   -7.3519  -22.1220   27.2510 C   0  0  0  0  0  0  0  0  0  0  0  0
   -7.2109  -20.3002   27.3670 C   0  0  0  0  0  0  0  0  0  0  0  0
   -7.9281  -19.3200   28.8645 N   0  0  0  0  0  0  0  0  0  0  0  0
  -10.1245   -9.7484   33.1210 N   0  0  0  0  0  0  0  0  0  0  0  0
  -10.3367   -7.9344   33.1231 N   0  0  0  0  0  0  0  0  0  0  0  0
   -3.8623   -6.8605   33.1235 H   0  0  0  0  0  0  0  0  0  0  0  0
   -4.7735   -6.8938   34.6030 H   0  0  0  0  0  0  0  0  0  0  0  0
   -4.6911   -8.3448   33.5430 H   0  0  0  0  0  0  0  0  0  0  0  0
   -5.8901   -5.6667   33.0299 H   0  0  0  0  0  0  0  0  0  0  0  0
   -5.1966   -7.7689   30.9926 H   0  0  0  0  0  0  0  0  0  0  0  0
   -4.8147   -6.0655   31.0814 H   0  0  0  0  0  0  0  0  0  0  0  0
   -6.4130   -6.5644   30.5775 H   0  0  0  0  0  0  0  0  0  0  0  0
   -7.8777   -6.3465   34.1158 H   0  0  0  0  0  0  0  0  0  0  0  0
   -7.9970   -6.6408   32.2550 H   0  0  0  0  0  0  0  0  0  0  0  0
  -10.9739   -8.9256   32.0173 H   0  0  0  0  0  0  0  0  0  0  0  0
   -8.8038  -14.9917   31.2302 H   0  0  0  0  0  0  0  0  0  0  0  0
   -6.2249  -16.8713   32.4429 H   0  0  0  0  0  0  0  0  0  0  0  0
   -7.6576  -17.6302   33.1214 H   0  0  0  0  0  0  0  0  0  0  0  0
   -5.0513  -20.4154   31.5571 H   0  0  0  0  0  0  0  0  0  0  0  0
   -6.8195  -22.8636   26.6410 H   0  0  0  0  0  0  0  0  0  0  0  0
   -6.3641  -19.7104   26.8523 H   0  0  0  0  0  0  0  0  0  0  0  0
  -10.9547  -10.0469   33.8418 H   0  0  0  0  0  0  0  0  0  0  0  0
  1  2  1  0
  2  3  1  0
  2  4  1  0
  4  5  1  0
  5  6  1  0
  6  7  2  0
  7  8  1  0
  8  9  2  0
  8 10  1  0
 10 11  1  0
 11 12  1  0
 12 13  2  0
 13 14  1  0
 14 15  1  0
 15 16  2  0
 16 17  1  0
 17 18  2  0
 18 19  1  0
  7 20  1  0
 20 21  1  0
 21  5  2  0
 19 12  1  0
 19 15  1  0
  1 22  1  0
  1 23  1  0
  1 24  1  0
  2 25  1  0
  3 26  1  0
  3 27  1  0
  3 28  1  0
  4 29  1  0
  4 30  1  0
  6 31  1  0
 10 32  1  0
 11 33  1  0
 11 34  1  0
 13 35  1  0
 17 36  1  0
 18 37  1  0
 20 38  1  0
M  END
>  <Energy>  (585) 
3190.9585377586368

>  <compound_id>  (585) 
67963

>  <target_id>  (585) 
1

>  <reference_id>  (585) 
7

>  <inspiration_ids>  (585) 
[7, 45]

>  <energy_score>  (585) 
3159.1221662190565

>  <distance_score>  (585) 
8.306799413284411

>  <path>  (585) 
/opt/xchem-fragalysis-2/maxwin/BulkDock/SCRATCH/511022/C67963-P7/C67963-P7.minimised.mol

>  <scratch_subdir>  (585) 
/opt/xchem-fragalysis-2/maxwin/BulkDock/SCRATCH/511022/C67963-P7

>  <fragmenstein_runtime>  (585) 
18.478700637817383

>  <fragmenstein_outcome>  (585) 
too moved

>  <fragmenstein_mode>  (585) 
expansion

>  <fragmenstein_error>  (585) 


$$$$
C67963-P45
     RDKit          3D

 38 40  0  0  0  0  0  0  0  0999 V2000
  -15.6991  -15.3240   37.1516 C   0  0  0  0  0  0  0  0  0  0  0  0
  -14.8513  -16.0820   36.1268 C   0  0  0  0  0  0  0  0  0  0  0  0
  -15.7686  -16.7230   35.0810 C   0  0  0  0  0  0  0  0  0  0  0  0
  -13.9640  -17.1147   36.8482 C   0  0  0  0  0  0  0  0  0  0  0  0
  -13.0292  -17.8399   35.9379 C   0  0  0  0  0  0  0  0  0  0  0  0
  -13.1895  -19.1407   35.3863 C   0  0  0  0  0  0  0  0  0  0  0  0
  -12.1144  -19.3581   34.5353 C   0  0  0  0  0  0  0  0  0  0  0  0
  -11.7508  -20.3919   33.5216 C   0  0  0  0  0  0  0  0  0  0  0  0
  -10.7474  -20.1895   32.9075 O   0  0  0  0  0  0  0  0  0  0  0  0
  -12.7361  -21.4266   33.3868 N   0  0  0  0  0  0  0  0  0  0  0  0
  -12.8765  -22.4962   32.3983 C   0  0  0  0  0  0  0  0  0  0  0  0
  -11.7771  -23.4918   32.1820 C   0  0  0  0  0  0  0  0  0  0  0  0
  -11.1610  -24.2503   33.1110 C   0  0  0  0  0  0  0  0  0  0  0  0
  -10.0543  -25.4642   32.4421 S   0  0  0  0  0  0  0  0  0  0  0  0
  -10.4959  -24.9424   30.8539 C   0  0  0  0  0  0  0  0  0  0  0  0
  -10.1456  -25.2898   29.6459 N   0  0  0  0  0  0  0  0  0  0  0  0
  -10.8750  -24.4343   28.8484 C   0  0  0  0  0  0  0  0  0  0  0  0
  -11.6551  -23.5725   29.6046 C   0  0  0  0  0  0  0  0  0  0  0  0
  -11.3867  -23.9053   30.9042 N   0  0  0  0  0  0  0  0  0  0  0  0
  -11.3885  -18.1808   34.6609 N   0  0  0  0  0  0  0  0  0  0  0  0
  -11.8838  -17.2916   35.5399 N   0  0  0  0  0  0  0  0  0  0  0  0
  -16.3956  -15.9961   37.6648 H   0  0  0  0  0  0  0  0  0  0  0  0
  -16.2849  -14.5370   36.6650 H   0  0  0  0  0  0  0  0  0  0  0  0
  -15.0692  -14.8501   37.9109 H   0  0  0  0  0  0  0  0  0  0  0  0
  -14.2094  -15.3575   35.6097 H   0  0  0  0  0  0  0  0  0  0  0  0
  -16.4282  -15.9722   34.6323 H   0  0  0  0  0  0  0  0  0  0  0  0
  -15.1923  -17.1731   34.2669 H   0  0  0  0  0  0  0  0  0  0  0  0
  -16.3968  -17.5015   35.5269 H   0  0  0  0  0  0  0  0  0  0  0  0
  -14.5965  -17.8447   37.3701 H   0  0  0  0  0  0  0  0  0  0  0  0
  -13.3748  -16.6119   37.6263 H   0  0  0  0  0  0  0  0  0  0  0  0
  -14.0298  -19.7968   35.5584 H   0  0  0  0  0  0  0  0  0  0  0  0
  -13.4983  -21.2399   34.0234 H   0  0  0  0  0  0  0  0  0  0  0  0
  -13.0846  -21.9787   31.4575 H   0  0  0  0  0  0  0  0  0  0  0  0
  -13.7932  -23.0372   32.6611 H   0  0  0  0  0  0  0  0  0  0  0  0
  -11.3564  -24.1992   34.1734 H   0  0  0  0  0  0  0  0  0  0  0  0
  -10.8008  -24.4796   27.7684 H   0  0  0  0  0  0  0  0  0  0  0  0
  -12.3374  -22.7852   29.3216 H   0  0  0  0  0  0  0  0  0  0  0  0
  -10.5606  -17.9279   34.1307 H   0  0  0  0  0  0  0  0  0  0  0  0
  1  2  1  0
  2  3  1  0
  2  4  1  0
  4  5  1  0
  5  6  1  0
  6  7  2  0
  7  8  1  0
  8  9  2  0
  8 10  1  0
 10 11  1  0
 11 12  1  0
 12 13  2  0
 13 14  1  0
 14 15  1  0
 15 16  2  0
 16 17  1  0
 17 18  2  0
 18 19  1  0
  7 20  1  0
 20 21  1  0
 21  5  2  0
 19 12  1  0
 19 15  1  0
  1 22  1  0
  1 23  1  0
  1 24  1  0
  2 25  1  0
  3 26  1  0
  3 27  1  0
  3 28  1  0
  4 29  1  0
  4 30  1  0
  6 31  1  0
 10 32  1  0
 11 33  1  0
 11 34  1  0
 13 35  1  0
 17 36  1  0
 18 37  1  0
 20 38  1  0
M  END
>  <Energy>  (586) 
-9.9221763617499814

>  <compound_id>  (586) 
67963

>  <target_id>  (586) 
1

>  <reference_id>  (586) 
45

>  <inspiration_ids>  (586) 
[7, 45]

>  <energy_score>  (586) 
-41.758547901272834

>  <distance_score>  (586) 
12.966831407547648

>  <path>  (586) 
/opt/xchem-fragalysis-2/maxwin/BulkDock/SCRATCH/511022/C67963-P45/C67963-P45.minimised.mol

>  <scratch_subdir>  (586) 
/opt/xchem-fragalysis-2/maxwin/BulkDock/SCRATCH/511022/C67963-P45

>  <fragmenstein_runtime>  (586) 
19.9537353515625

>  <fragmenstein_outcome>  (586) 
too moved

>  <fragmenstein_mode>  (586) 
expansion

>  <fragmenstein_error>  (586) 


$$$$
C67964-P7
     RDKit          3D

 36 38  0  0  0  0  0  0  0  0999 V2000
   -8.7924  -16.4216   33.8282 C   0  0  0  0  0  0  0  0  0  0  0  0
   -7.8673  -15.6203   32.8106 C   0  0  0  0  0  0  0  0  0  0  0  0
   -6.9047  -17.5664   32.2898 C   0  0  0  0  0  0  0  0  0  0  0  0
   -6.8085  -19.1138   30.8830 N   0  0  0  0  0  0  0  0  0  0  0  0
   -7.1318  -21.2033   31.0593 C   0  0  0  0  0  0  0  0  0  0  0  0
   -7.3061  -21.6988   32.2066 O   0  0  0  0  0  0  0  0  0  0  0  0
   -7.3667  -22.4547   28.9733 C   0  0  0  0  0  0  0  0  0  0  0  0
   -8.0932  -22.3040   27.7546 C   0  0  0  0  0  0  0  0  0  0  0  0
  -10.2448  -22.9406   27.8125 S   0  0  0  0  0  0  0  0  0  0  0  0
   -9.5472  -24.4030   28.1155 C   0  0  0  0  0  0  0  0  0  0  0  0
  -10.1379  -25.5550   28.1854 N   0  0  0  0  0  0  0  0  0  0  0  0
   -9.8143  -25.9573   29.4200 C   0  0  0  0  0  0  0  0  0  0  0  0
   -8.9041  -25.0967   29.9809 C   0  0  0  0  0  0  0  0  0  0  0  0
   -8.3497  -24.1342   28.8859 N   0  0  0  0  0  0  0  0  0  0  0  0
   -9.0939  -13.9003   32.7517 N   0  0  0  0  0  0  0  0  0  0  0  0
   -8.6942  -11.9435   32.5194 C   0  0  0  0  0  0  0  0  0  0  0  0
   -7.5515  -11.7221   32.2810 O   0  0  0  0  0  0  0  0  0  0  0  0
   -9.6464  -10.3741   32.3787 C   0  0  0  0  0  0  0  0  0  0  0  0
   -9.6569   -9.2106   33.3356 N   0  0  0  0  0  0  0  0  0  0  0  0
   -9.1331   -7.8435   33.0422 N   0  0  0  0  0  0  0  0  0  0  0  0
  -10.3191   -7.6193   33.3113 C   0  0  0  0  0  0  0  0  0  0  0  0
  -10.7962   -9.2403   33.2200 C   0  0  0  0  0  0  0  0  0  0  0  0
  -11.5872   -9.7438   34.3270 F   0  0  0  0  0  0  0  0  0  0  0  0
   -8.7690  -17.5058   33.7883 H   0  0  0  0  0  0  0  0  0  0  0  0
   -9.8457  -16.1433   33.7695 H   0  0  0  0  0  0  0  0  0  0  0  0
   -8.4260  -16.2844   34.8577 H   0  0  0  0  0  0  0  0  0  0  0  0
   -7.6258  -14.8984   32.0098 H   0  0  0  0  0  0  0  0  0  0  0  0
   -7.0220  -18.1611   33.2025 H   0  0  0  0  0  0  0  0  0  0  0  0
   -5.8743  -17.2063   32.2900 H   0  0  0  0  0  0  0  0  0  0  0  0
   -6.7771  -18.8649   29.9210 H   0  0  0  0  0  0  0  0  0  0  0  0
   -7.6462  -22.7950   26.8936 H   0  0  0  0  0  0  0  0  0  0  0  0
  -10.2957  -26.8003   29.8976 H   0  0  0  0  0  0  0  0  0  0  0  0
   -8.5402  -25.0433   31.0011 H   0  0  0  0  0  0  0  0  0  0  0  0
  -10.0356  -13.9944   33.0349 H   0  0  0  0  0  0  0  0  0  0  0  0
   -8.2424   -7.4060   33.2938 H   0  0  0  0  0  0  0  0  0  0  0  0
  -10.6182   -6.8934   34.0713 H   0  0  0  0  0  0  0  0  0  0  0  0
  1  2  1  0
  2  3  1  0
  3  4  1  0
  4  5  1  0
  5  6  2  0
  5  7  1  0
  7  8  2  0
  8  9  1  0
  9 10  1  0
 10 11  2  0
 11 12  1  0
 12 13  2  0
 13 14  1  0
  2 15  1  0
 15 16  1  0
 16 17  2  0
 16 18  1  0
 18 19  2  0
 19 20  1  0
 20 21  1  0
 21 22  2  0
 22 23  1  0
 14  7  1  0
 22 18  1  0
 14 10  1  0
  1 24  1  0
  1 25  1  0
  1 26  1  0
  2 27  1  0
  3 28  1  0
  3 29  1  0
  4 30  1  0
  8 31  1  0
 12 32  1  0
 13 33  1  0
 15 34  1  0
 20 35  1  0
 21 36  1  0
M  END
>  <Energy>  (587) 
2004.2777239591603

>  <compound_id>  (587) 
67964

>  <target_id>  (587) 
1

>  <reference_id>  (587) 
7

>  <inspiration_ids>  (587) 
[7, 45]

>  <energy_score>  (587) 
1929.5943653923714

>  <distance_score>  (587) 
7.1107636792502005

>  <path>  (587) 
/opt/xchem-fragalysis-2/maxwin/BulkDock/SCRATCH/511022/C67964-P7/C67964-P7.minimised.mol

>  <scratch_subdir>  (587) 
/opt/xchem-fragalysis-2/maxwin/BulkDock/SCRATCH/511022/C67964-P7

>  <fragmenstein_runtime>  (587) 
15.036972999572754

>  <fragmenstein_outcome>  (587) 
too moved

>  <fragmenstein_mode>  (587) 
expansion

>  <fragmenstein_error>  (587) 


$$$$
C67964-P45
     RDKit          3D

 36 38  0  0  0  0  0  0  0  0999 V2000
  -14.9808  -12.8181   33.5845 C   0  0  0  0  0  0  0  0  0  0  0  0
  -13.4275  -13.2047   33.5886 C   0  0  0  0  0  0  0  0  0  0  0  0
  -13.1841  -14.2353   31.6779 C   0  0  0  0  0  0  0  0  0  0  0  0
  -13.4011  -15.7691   30.2604 N   0  0  0  0  0  0  0  0  0  0  0  0
  -14.7488  -16.1331   28.8001 C   0  0  0  0  0  0  0  0  0  0  0  0
  -15.6847  -15.4643   28.3994 O   0  0  0  0  0  0  0  0  0  0  0  0
  -14.6926  -17.7398   27.7709 C   0  0  0  0  0  0  0  0  0  0  0  0
  -15.4952  -17.5444   26.6693 C   0  0  0  0  0  0  0  0  0  0  0  0
  -15.6244  -18.9123   25.5300 S   0  0  0  0  0  0  0  0  0  0  0  0
  -14.6278  -19.8257   26.6017 C   0  0  0  0  0  0  0  0  0  0  0  0
  -14.1798  -21.0526   26.5706 N   0  0  0  0  0  0  0  0  0  0  0  0
  -13.9779  -21.3236   27.8930 C   0  0  0  0  0  0  0  0  0  0  0  0
  -14.3775  -20.2356   28.6464 C   0  0  0  0  0  0  0  0  0  0  0  0
  -14.4258  -19.1563   27.7956 N   0  0  0  0  0  0  0  0  0  0  0  0
  -12.9582  -11.3339   34.4914 N   0  0  0  0  0  0  0  0  0  0  0  0
  -11.6402   -9.8219   34.0584 C   0  0  0  0  0  0  0  0  0  0  0  0
  -10.7524   -9.7489   33.1970 O   0  0  0  0  0  0  0  0  0  0  0  0
  -11.8428   -7.9284   35.0243 C   0  0  0  0  0  0  0  0  0  0  0  0
  -11.0777   -6.7214   34.5591 N   0  0  0  0  0  0  0  0  0  0  0  0
  -11.4683   -5.6650   35.2950 N   0  0  0  0  0  0  0  0  0  0  0  0
  -12.7752   -5.4337   35.3597 C   0  0  0  0  0  0  0  0  0  0  0  0
  -13.2732   -6.7238   35.2753 C   0  0  0  0  0  0  0  0  0  0  0  0
  -14.5597   -7.0375   35.5028 F   0  0  0  0  0  0  0  0  0  0  0  0
  -15.2428  -12.2645   34.4917 H   0  0  0  0  0  0  0  0  0  0  0  0
  -15.6194  -13.7017   33.6001 H   0  0  0  0  0  0  0  0  0  0  0  0
  -15.2281  -12.1908   32.7274 H   0  0  0  0  0  0  0  0  0  0  0  0
  -13.5314  -13.9771   34.3818 H   0  0  0  0  0  0  0  0  0  0  0  0
  -12.3354  -14.7703   32.0676 H   0  0  0  0  0  0  0  0  0  0  0  0
  -13.5412  -13.3847   31.0493 H   0  0  0  0  0  0  0  0  0  0  0  0
  -12.6959  -16.4764   30.3038 H   0  0  0  0  0  0  0  0  0  0  0  0
  -15.9712  -16.6104   26.3997 H   0  0  0  0  0  0  0  0  0  0  0  0
  -13.7725  -22.3336   28.2244 H   0  0  0  0  0  0  0  0  0  0  0  0
  -14.8665  -20.2159   29.6002 H   0  0  0  0  0  0  0  0  0  0  0  0
  -13.6217  -11.0623   35.2047 H   0  0  0  0  0  0  0  0  0  0  0  0
  -10.7704   -5.1743   35.8362 H   0  0  0  0  0  0  0  0  0  0  0  0
  -13.1286   -4.5233   35.8037 H   0  0  0  0  0  0  0  0  0  0  0  0
  1  2  1  0
  2  3  1  0
  3  4  1  0
  4  5  1  0
  5  6  2  0
  5  7  1  0
  7  8  2  0
  8  9  1  0
  9 10  1  0
 10 11  2  0
 11 12  1  0
 12 13  2  0
 13 14  1  0
  2 15  1  0
 15 16  1  0
 16 17  2  0
 16 18  1  0
 18 19  2  0
 19 20  1  0
 20 21  1  0
 21 22  2  0
 22 23  1  0
 14  7  1  0
 22 18  1  0
 14 10  1  0
  1 24  1  0
  1 25  1  0
  1 26  1  0
  2 27  1  0
  3 28  1  0
  3 29  1  0
  4 30  1  0
  8 31  1  0
 12 32  1  0
 13 33  1  0
 15 34  1  0
 20 35  1  0
 21 36  1  0
M  END
>  <Energy>  (588) 
1101.4707264578167

>  <compound_id>  (588) 
67964

>  <target_id>  (588) 
1

>  <reference_id>  (588) 
45

>  <inspiration_ids>  (588) 
[7, 45]

>  <energy_score>  (588) 
1026.7873678910532

>  <distance_score>  (588) 
9.770596626386364

>  <path>  (588) 
/opt/xchem-fragalysis-2/maxwin/BulkDock/SCRATCH/511022/C67964-P45/C67964-P45.minimised.mol

>  <scratch_subdir>  (588) 
/opt/xchem-fragalysis-2/maxwin/BulkDock/SCRATCH/511022/C67964-P45

>  <fragmenstein_runtime>  (588) 
15.260574102401733

>  <fragmenstein_outcome>  (588) 
too moved

>  <fragmenstein_mode>  (588) 
expansion

>  <fragmenstein_error>  (588) 


$$$$
C67965-P7
     RDKit          3D

 39 41  0  0  0  0  0  0  0  0999 V2000
   -5.9127  -11.5127   31.1507 C   0  0  0  0  0  0  0  0  0  0  0  0
   -7.4482  -12.1462   31.8264 N   0  0  0  0  0  0  0  0  0  0  0  0
   -7.1049  -13.7551   30.3733 C   0  0  0  0  0  0  0  0  0  0  0  0
   -8.0638  -14.8424   28.6126 C   0  0  0  0  0  0  0  0  0  0  0  0
   -8.0927  -16.8945   27.8935 N   0  0  0  0  0  0  0  0  0  0  0  0
   -9.3830  -18.4814   28.1138 C   0  0  0  0  0  0  0  0  0  0  0  0
  -10.6074  -18.2939   28.9471 O   0  0  0  0  0  0  0  0  0  0  0  0
   -9.3450  -20.4558   27.5777 C   0  0  0  0  0  0  0  0  0  0  0  0
  -10.5761  -21.6691   28.3106 C   0  0  0  0  0  0  0  0  0  0  0  0
  -11.6504  -21.3894   29.0977 C   0  0  0  0  0  0  0  0  0  0  0  0
  -12.5993  -22.6941   29.7712 S   0  0  0  0  0  0  0  0  0  0  0  0
  -11.7058  -23.7483   28.7816 C   0  0  0  0  0  0  0  0  0  0  0  0
  -11.7766  -25.0390   28.6249 N   0  0  0  0  0  0  0  0  0  0  0  0
  -10.8312  -25.2782   27.6865 C   0  0  0  0  0  0  0  0  0  0  0  0
  -10.2192  -24.1046   27.3081 C   0  0  0  0  0  0  0  0  0  0  0  0
  -10.7359  -23.0895   28.0531 N   0  0  0  0  0  0  0  0  0  0  0  0
   -8.8552  -10.6816   31.8728 C   0  0  0  0  0  0  0  0  0  0  0  0
   -9.4780  -10.6988   30.8813 O   0  0  0  0  0  0  0  0  0  0  0  0
   -9.6068   -9.1838   33.0476 C   0  0  0  0  0  0  0  0  0  0  0  0
   -8.8245   -7.7542   32.9129 N   0  0  0  0  0  0  0  0  0  0  0  0
   -9.1094   -6.9769   33.7934 N   0  0  0  0  0  0  0  0  0  0  0  0
  -10.4024   -7.1577   33.8128 C   0  0  0  0  0  0  0  0  0  0  0  0
  -10.7431   -8.6900   33.2825 C   0  0  0  0  0  0  0  0  0  0  0  0
  -11.4402   -9.5481   34.1978 F   0  0  0  0  0  0  0  0  0  0  0  0
   -6.2250  -10.7250   30.4146 H   0  0  0  0  0  0  0  0  0  0  0  0
   -5.4829  -10.9018   31.9443 H   0  0  0  0  0  0  0  0  0  0  0  0
   -5.2238  -12.2359   30.7155 H   0  0  0  0  0  0  0  0  0  0  0  0
   -6.0422  -13.8244   30.1452 H   0  0  0  0  0  0  0  0  0  0  0  0
   -7.2767  -14.4225   31.2112 H   0  0  0  0  0  0  0  0  0  0  0  0
   -7.3234  -14.3932   27.9595 H   0  0  0  0  0  0  0  0  0  0  0  0
   -8.8685  -14.1996   28.1926 H   0  0  0  0  0  0  0  0  0  0  0  0
   -7.4110  -17.1594   27.2667 H   0  0  0  0  0  0  0  0  0  0  0  0
   -8.4559  -19.5616   28.1838 H   0  0  0  0  0  0  0  0  0  0  0  0
   -8.3361  -21.1132   27.3450 H   0  0  0  0  0  0  0  0  0  0  0  0
  -12.0909  -20.4288   29.2095 H   0  0  0  0  0  0  0  0  0  0  0  0
  -10.6459  -26.2763   27.3127 H   0  0  0  0  0  0  0  0  0  0  0  0
   -9.4737  -23.9542   26.5779 H   0  0  0  0  0  0  0  0  0  0  0  0
   -8.3887   -6.4171   34.2500 H   0  0  0  0  0  0  0  0  0  0  0  0
  -10.9712   -6.6309   34.5778 H   0  0  0  0  0  0  0  0  0  0  0  0
  1  2  1  0
  2  3  1  0
  3  4  1  0
  4  5  1  0
  5  6  1  0
  6  7  2  0
  6  8  1  0
  8  9  1  0
  9 10  2  0
 10 11  1  0
 11 12  1  0
 12 13  2  0
 13 14  1  0
 14 15  2  0
 15 16  1  0
  2 17  1  0
 17 18  2  0
 17 19  1  0
 19 20  2  0
 20 21  1  0
 21 22  1  0
 22 23  2  0
 23 24  1  0
 16  9  1  0
 23 19  1  0
 16 12  1  0
  1 25  1  0
  1 26  1  0
  1 27  1  0
  3 28  1  0
  3 29  1  0
  4 30  1  0
  4 31  1  0
  5 32  1  0
  8 33  1  0
  8 34  1  0
 10 35  1  0
 14 36  1  0
 15 37  1  0
 21 38  1  0
 22 39  1  0
M  END
>  <Energy>  (589) 
1529.3498668631792

>  <compound_id>  (589) 
67965

>  <target_id>  (589) 
1

>  <reference_id>  (589) 
7

>  <inspiration_ids>  (589) 
[7, 45]

>  <energy_score>  (589) 
1428.3628910321413

>  <distance_score>  (589) 
7.733893610282449

>  <path>  (589) 
/opt/xchem-fragalysis-2/maxwin/BulkDock/SCRATCH/511022/C67965-P7/C67965-P7.minimised.mol

>  <scratch_subdir>  (589) 
/opt/xchem-fragalysis-2/maxwin/BulkDock/SCRATCH/511022/C67965-P7

>  <fragmenstein_runtime>  (589) 
22.606690406799316

>  <fragmenstein_outcome>  (589) 
too moved

>  <fragmenstein_mode>  (589) 
expansion

>  <fragmenstein_error>  (589) 


$$$$
C67965-P45
     RDKit          3D

 39 41  0  0  0  0  0  0  0  0999 V2000
   -8.2169  -11.3897   34.2019 C   0  0  0  0  0  0  0  0  0  0  0  0
   -8.8885  -11.0402   32.8844 N   0  0  0  0  0  0  0  0  0  0  0  0
   -9.2637  -12.9632   33.0877 C   0  0  0  0  0  0  0  0  0  0  0  0
  -10.5049  -14.5961   33.1963 C   0  0  0  0  0  0  0  0  0  0  0  0
  -10.3508  -15.6803   32.1487 N   0  0  0  0  0  0  0  0  0  0  0  0
  -11.4329  -16.1222   30.5178 C   0  0  0  0  0  0  0  0  0  0  0  0
  -12.3584  -15.4193   30.1548 O   0  0  0  0  0  0  0  0  0  0  0  0
  -11.1304  -18.0350   29.3537 C   0  0  0  0  0  0  0  0  0  0  0  0
  -10.7243  -20.2279   29.6008 C   0  0  0  0  0  0  0  0  0  0  0  0
  -10.8571  -20.8086   30.9289 C   0  0  0  0  0  0  0  0  0  0  0  0
  -11.9547  -22.1770   31.2133 S   0  0  0  0  0  0  0  0  0  0  0  0
  -12.2691  -22.2149   29.5208 C   0  0  0  0  0  0  0  0  0  0  0  0
  -12.6535  -23.2538   28.8168 N   0  0  0  0  0  0  0  0  0  0  0  0
  -11.6254  -23.3943   27.9349 C   0  0  0  0  0  0  0  0  0  0  0  0
  -10.7242  -22.3856   28.1680 C   0  0  0  0  0  0  0  0  0  0  0  0
  -11.3972  -21.3690   28.8538 N   0  0  0  0  0  0  0  0  0  0  0  0
  -10.0224   -9.4973   33.1186 C   0  0  0  0  0  0  0  0  0  0  0  0
  -11.1607   -9.6516   33.4215 O   0  0  0  0  0  0  0  0  0  0  0  0
   -9.5463   -7.7088   33.1062 C   0  0  0  0  0  0  0  0  0  0  0  0
   -8.3747   -7.1416   32.7025 N   0  0  0  0  0  0  0  0  0  0  0  0
   -7.6880   -6.6503   33.6580 N   0  0  0  0  0  0  0  0  0  0  0  0
   -8.5482   -6.3624   34.5943 C   0  0  0  0  0  0  0  0  0  0  0  0
   -9.8291   -6.7467   34.0195 C   0  0  0  0  0  0  0  0  0  0  0  0
  -11.0074   -6.4060   34.6150 F   0  0  0  0  0  0  0  0  0  0  0  0
   -7.4347  -10.9180   33.6468 H   0  0  0  0  0  0  0  0  0  0  0  0
   -7.6915  -10.8140   35.0074 H   0  0  0  0  0  0  0  0  0  0  0  0
   -8.9173  -11.2879   35.0102 H   0  0  0  0  0  0  0  0  0  0  0  0
   -8.2373  -13.4743   32.9565 H   0  0  0  0  0  0  0  0  0  0  0  0
   -9.8546  -12.6791   32.3425 H   0  0  0  0  0  0  0  0  0  0  0  0
  -10.3493  -15.2176   34.0887 H   0  0  0  0  0  0  0  0  0  0  0  0
  -11.6140  -14.5360   33.1724 H   0  0  0  0  0  0  0  0  0  0  0  0
   -9.7340  -16.3730   32.3202 H   0  0  0  0  0  0  0  0  0  0  0  0
  -12.2340  -18.1265   29.0606 H   0  0  0  0  0  0  0  0  0  0  0  0
  -11.1069  -17.8199   28.2947 H   0  0  0  0  0  0  0  0  0  0  0  0
  -10.6414  -20.2915   31.8624 H   0  0  0  0  0  0  0  0  0  0  0  0
  -11.5013  -24.2988   27.3540 H   0  0  0  0  0  0  0  0  0  0  0  0
   -9.6581  -22.3654   28.1108 H   0  0  0  0  0  0  0  0  0  0  0  0
   -6.6732   -6.5859   33.6360 H   0  0  0  0  0  0  0  0  0  0  0  0
   -8.2501   -5.8309   35.4648 H   0  0  0  0  0  0  0  0  0  0  0  0
  1  2  1  0
  2  3  1  0
  3  4  1  0
  4  5  1  0
  5  6  1  0
  6  7  2  0
  6  8  1  0
  8  9  1  0
  9 10  2  0
 10 11  1  0
 11 12  1  0
 12 13  2  0
 13 14  1  0
 14 15  2  0
 15 16  1  0
  2 17  1  0
 17 18  2  0
 17 19  1  0
 19 20  2  0
 20 21  1  0
 21 22  1  0
 22 23  2  0
 23 24  1  0
 16  9  1  0
 23 19  1  0
 16 12  1  0
  1 25  1  0
  1 26  1  0
  1 27  1  0
  3 28  1  0
  3 29  1  0
  4 30  1  0
  4 31  1  0
  5 32  1  0
  8 33  1  0
  8 34  1  0
 10 35  1  0
 14 36  1  0
 15 37  1  0
 21 38  1  0
 22 39  1  0
M  END
>  <Energy>  (590) 
1145.0614651198396

>  <compound_id>  (590) 
67965

>  <target_id>  (590) 
1

>  <reference_id>  (590) 
45

>  <inspiration_ids>  (590) 
[7, 45]

>  <energy_score>  (590) 
1044.074489288819

>  <distance_score>  (590) 
7.757388915823958

>  <path>  (590) 
/opt/xchem-fragalysis-2/maxwin/BulkDock/SCRATCH/511022/C67965-P45/C67965-P45.minimised.mol

>  <scratch_subdir>  (590) 
/opt/xchem-fragalysis-2/maxwin/BulkDock/SCRATCH/511022/C67965-P45

>  <fragmenstein_runtime>  (590) 
19.590336084365845

>  <fragmenstein_outcome>  (590) 
too moved

>  <fragmenstein_mode>  (590) 
expansion

>  <fragmenstein_error>  (590) 


$$$$
C67966-P7
     RDKit          3D

 39 41  0  0  0  0  0  0  0  0999 V2000
   -7.0572  -13.9612   31.2844 C   0  0  0  0  0  0  0  0  0  0  0  0
   -7.9933  -13.9917   32.8382 C   0  0  0  0  0  0  0  0  0  0  0  0
   -8.6547  -11.7585   32.6859 C   0  0  0  0  0  0  0  0  0  0  0  0
   -9.6493   -9.8279   33.0951 N   0  0  0  0  0  0  0  0  0  0  0  0
   -8.9998   -7.9732   33.1875 C   0  0  0  0  0  0  0  0  0  0  0  0
   -7.8759   -7.4968   32.9057 O   0  0  0  0  0  0  0  0  0  0  0  0
   -9.8045   -6.9368   33.7934 C   0  0  0  0  0  0  0  0  0  0  0  0
  -10.9678   -6.8056   34.4542 N   0  0  0  0  0  0  0  0  0  0  0  0
  -11.0414   -5.8042   35.3271 N   0  0  0  0  0  0  0  0  0  0  0  0
   -9.9120   -5.4045   35.8809 C   0  0  0  0  0  0  0  0  0  0  0  0
   -8.8168   -5.9888   35.0021 C   0  0  0  0  0  0  0  0  0  0  0  0
   -7.4977   -5.8424   35.0978 F   0  0  0  0  0  0  0  0  0  0  0  0
   -8.5098  -15.9724   32.1687 N   0  0  0  0  0  0  0  0  0  0  0  0
   -7.3547  -17.5195   31.1559 C   0  0  0  0  0  0  0  0  0  0  0  0
   -6.1803  -17.2374   31.1911 O   0  0  0  0  0  0  0  0  0  0  0  0
   -7.6498  -19.0660   29.5783 C   0  0  0  0  0  0  0  0  0  0  0  0
   -8.7648  -19.1809   28.3948 C   0  0  0  0  0  0  0  0  0  0  0  0
  -10.0777  -20.6569   28.8566 C   0  0  0  0  0  0  0  0  0  0  0  0
   -9.9002  -21.7910   28.1537 C   0  0  0  0  0  0  0  0  0  0  0  0
   -8.2290  -21.8949   27.7130 C   0  0  0  0  0  0  0  0  0  0  0  0
   -7.6913  -22.8732   27.0894 N   0  0  0  0  0  0  0  0  0  0  0  0
   -6.4134  -22.7693   27.1248 C   0  0  0  0  0  0  0  0  0  0  0  0
   -6.1223  -21.5839   27.6344 C   0  0  0  0  0  0  0  0  0  0  0  0
   -7.3558  -20.3773   27.9704 N   0  0  0  0  0  0  0  0  0  0  0  0
   -6.4772  -13.0523   31.3084 H   0  0  0  0  0  0  0  0  0  0  0  0
   -7.6334  -13.9684   30.4082 H   0  0  0  0  0  0  0  0  0  0  0  0
   -6.4129  -14.7859   31.0141 H   0  0  0  0  0  0  0  0  0  0  0  0
   -7.2721  -14.0480   33.6353 H   0  0  0  0  0  0  0  0  0  0  0  0
   -7.7727  -11.4553   32.2276 H   0  0  0  0  0  0  0  0  0  0  0  0
   -8.6088  -11.8409   33.7739 H   0  0  0  0  0  0  0  0  0  0  0  0
  -10.5884   -9.8849   33.4744 H   0  0  0  0  0  0  0  0  0  0  0  0
  -11.9657   -5.5548   35.6509 H   0  0  0  0  0  0  0  0  0  0  0  0
  -10.0716   -4.5597   36.5307 H   0  0  0  0  0  0  0  0  0  0  0  0
   -9.4640  -16.2656   32.2165 H   0  0  0  0  0  0  0  0  0  0  0  0
   -9.0439  -18.3409   27.7942 H   0  0  0  0  0  0  0  0  0  0  0  0
  -11.0020  -20.5853   29.4085 H   0  0  0  0  0  0  0  0  0  0  0  0
  -10.5347  -22.6710   28.0746 H   0  0  0  0  0  0  0  0  0  0  0  0
   -5.6710  -23.4350   26.7732 H   0  0  0  0  0  0  0  0  0  0  0  0
   -5.2528  -21.6301   28.1737 H   0  0  0  0  0  0  0  0  0  0  0  0
  1  2  1  0
  2  3  1  0
  3  4  1  0
  4  5  1  0
  5  6  2  0
  5  7  1  0
  7  8  2  0
  8  9  1  0
  9 10  1  0
 10 11  2  0
 11 12  1  0
  2 13  1  0
 13 14  1  0
 14 15  2  0
 14 16  1  0
 16 17  2  0
 17 18  1  0
 18 19  2  0
 19 20  1  0
 20 21  2  0
 21 22  1  0
 22 23  2  0
 23 24  1  0
 11  7  1  0
 24 16  1  0
 24 20  1  0
  1 25  1  0
  1 26  1  0
  1 27  1  0
  2 28  1  0
  3 29  1  0
  3 30  1  0
  4 31  1  0
  9 32  1  0
 10 33  1  0
 13 34  1  0
 17 35  1  0
 18 36  1  0
 19 37  1  0
 22 38  1  0
 23 39  1  0
M  END
>  <Energy>  (591) 
2044.376461540395

>  <compound_id>  (591) 
67966

>  <target_id>  (591) 
1

>  <reference_id>  (591) 
7

>  <inspiration_ids>  (591) 
[7, 45]

>  <energy_score>  (591) 
1978.1046846473519

>  <distance_score>  (591) 
6.7643910487524295

>  <path>  (591) 
/opt/xchem-fragalysis-2/maxwin/BulkDock/SCRATCH/511022/C67966-P7/C67966-P7.minimised.mol

>  <scratch_subdir>  (591) 
/opt/xchem-fragalysis-2/maxwin/BulkDock/SCRATCH/511022/C67966-P7

>  <fragmenstein_runtime>  (591) 
24.351933240890503

>  <fragmenstein_outcome>  (591) 
too moved

>  <fragmenstein_mode>  (591) 
expansion

>  <fragmenstein_error>  (591) 


$$$$
C67966-P45
     RDKit          3D

 39 41  0  0  0  0  0  0  0  0999 V2000
   -8.5809  -15.7217   26.7714 C   0  0  0  0  0  0  0  0  0  0  0  0
   -8.1534  -16.3043   28.2329 C   0  0  0  0  0  0  0  0  0  0  0  0
   -9.0425  -14.6739   29.6675 C   0  0  0  0  0  0  0  0  0  0  0  0
   -9.5566  -13.6617   31.5382 N   0  0  0  0  0  0  0  0  0  0  0  0
   -9.6126  -11.4207   31.8513 C   0  0  0  0  0  0  0  0  0  0  0  0
   -9.3900  -10.9126   30.8344 O   0  0  0  0  0  0  0  0  0  0  0  0
  -10.0364   -9.8555   33.0004 C   0  0  0  0  0  0  0  0  0  0  0  0
  -11.2679   -9.8035   33.2308 N   0  0  0  0  0  0  0  0  0  0  0  0
  -11.2081   -9.2196   34.2253 N   0  0  0  0  0  0  0  0  0  0  0  0
  -10.5919   -7.4217   33.8061 C   0  0  0  0  0  0  0  0  0  0  0  0
   -9.6371   -8.0145   33.1566 C   0  0  0  0  0  0  0  0  0  0  0  0
   -8.5523   -7.2287   32.9997 F   0  0  0  0  0  0  0  0  0  0  0  0
   -8.3643  -18.4375   27.9450 N   0  0  0  0  0  0  0  0  0  0  0  0
   -7.1462  -19.9064   27.2037 C   0  0  0  0  0  0  0  0  0  0  0  0
   -5.9925  -19.7384   26.6574 O   0  0  0  0  0  0  0  0  0  0  0  0
   -7.5660  -21.7746   27.4626 C   0  0  0  0  0  0  0  0  0  0  0  0
   -6.3966  -22.5089   27.4119 C   0  0  0  0  0  0  0  0  0  0  0  0
   -6.2710  -23.9488   27.4050 C   0  0  0  0  0  0  0  0  0  0  0  0
   -7.3201  -24.7395   27.6124 C   0  0  0  0  0  0  0  0  0  0  0  0
   -8.5407  -24.1606   27.9891 C   0  0  0  0  0  0  0  0  0  0  0  0
   -9.6562  -24.7829   28.3012 N   0  0  0  0  0  0  0  0  0  0  0  0
  -10.5871  -23.8144   28.4795 C   0  0  0  0  0  0  0  0  0  0  0  0
  -10.0238  -22.5714   28.3401 C   0  0  0  0  0  0  0  0  0  0  0  0
   -8.6553  -22.7420   28.0135 N   0  0  0  0  0  0  0  0  0  0  0  0
   -7.9374  -15.8504   25.9237 H   0  0  0  0  0  0  0  0  0  0  0  0
   -9.5277  -16.1685   26.4560 H   0  0  0  0  0  0  0  0  0  0  0  0
   -8.6490  -14.6372   26.8825 H   0  0  0  0  0  0  0  0  0  0  0  0
   -7.0951  -16.3052   28.3374 H   0  0  0  0  0  0  0  0  0  0  0  0
  -10.0506  -14.3178   29.2621 H   0  0  0  0  0  0  0  0  0  0  0  0
   -8.4894  -13.9113   29.0836 H   0  0  0  0  0  0  0  0  0  0  0  0
   -9.6623  -14.1490   32.4953 H   0  0  0  0  0  0  0  0  0  0  0  0
  -11.8380   -9.3689   35.0018 H   0  0  0  0  0  0  0  0  0  0  0  0
  -11.0199   -6.6371   34.4297 H   0  0  0  0  0  0  0  0  0  0  0  0
   -9.2021  -18.8159   28.2156 H   0  0  0  0  0  0  0  0  0  0  0  0
   -5.4555  -22.0239   27.2358 H   0  0  0  0  0  0  0  0  0  0  0  0
   -5.3072  -24.3812   27.1476 H   0  0  0  0  0  0  0  0  0  0  0  0
   -7.2529  -25.8175   27.5204 H   0  0  0  0  0  0  0  0  0  0  0  0
  -11.6184  -24.0531   28.7069 H   0  0  0  0  0  0  0  0  0  0  0  0
  -10.4713  -21.6011   28.4030 H   0  0  0  0  0  0  0  0  0  0  0  0
  1  2  1  0
  2  3  1  0
  3  4  1  0
  4  5  1  0
  5  6  2  0
  5  7  1  0
  7  8  2  0
  8  9  1  0
  9 10  1  0
 10 11  2  0
 11 12  1  0
  2 13  1  0
 13 14  1  0
 14 15  2  0
 14 16  1  0
 16 17  2  0
 17 18  1  0
 18 19  2  0
 19 20  1  0
 20 21  2  0
 21 22  1  0
 22 23  2  0
 23 24  1  0
 11  7  1  0
 24 16  1  0
 24 20  1  0
  1 25  1  0
  1 26  1  0
  1 27  1  0
  2 28  1  0
  3 29  1  0
  3 30  1  0
  4 31  1  0
  9 32  1  0
 10 33  1  0
 13 34  1  0
 17 35  1  0
 18 36  1  0
 19 37  1  0
 22 38  1  0
 23 39  1  0
M  END
>  <Energy>  (592) 
1613.1771074195126

>  <compound_id>  (592) 
67966

>  <target_id>  (592) 
1

>  <reference_id>  (592) 
45

>  <inspiration_ids>  (592) 
[7, 45]

>  <energy_score>  (592) 
1546.905330526519

>  <distance_score>  (592) 
6.753555305237281

>  <path>  (592) 
/opt/xchem-fragalysis-2/maxwin/BulkDock/SCRATCH/511022/C67966-P45/C67966-P45.minimised.mol

>  <scratch_subdir>  (592) 
/opt/xchem-fragalysis-2/maxwin/BulkDock/SCRATCH/511022/C67966-P45

>  <fragmenstein_runtime>  (592) 
28.742551565170288

>  <fragmenstein_outcome>  (592) 
too moved

>  <fragmenstein_mode>  (592) 
expansion

>  <fragmenstein_error>  (592) 


$$$$
C67967-P7
     RDKit          3D

 36 38  0  0  0  0  0  0  0  0999 V2000
  -11.8756  -16.1518   27.1535 C   0  0  0  0  0  0  0  0  0  0  0  0
  -12.6871  -16.7417   28.3697 C   0  0  0  0  0  0  0  0  0  0  0  0
  -12.5706  -15.9899   30.1719 C   0  0  0  0  0  0  0  0  0  0  0  0
  -12.9778  -14.7153   30.5692 N   0  0  0  0  0  0  0  0  0  0  0  0
  -13.0342  -14.0900   31.8953 C   0  0  0  0  0  0  0  0  0  0  0  0
  -12.8184  -14.5470   33.0025 O   0  0  0  0  0  0  0  0  0  0  0  0
  -13.4301  -12.2837   31.3534 C   0  0  0  0  0  0  0  0  0  0  0  0
  -11.9476  -11.6264   30.5236 N   0  0  0  0  0  0  0  0  0  0  0  0
  -10.4206  -11.2442   31.9152 N   0  0  0  0  0  0  0  0  0  0  0  0
  -11.6826  -10.3195   33.3455 C   0  0  0  0  0  0  0  0  0  0  0  0
  -13.3718  -11.0712   33.0942 C   0  0  0  0  0  0  0  0  0  0  0  0
  -14.4573  -10.5151   33.6813 F   0  0  0  0  0  0  0  0  0  0  0  0
  -12.7685  -18.2521   28.1303 N   0  0  0  0  0  0  0  0  0  0  0  0
  -13.2726  -19.0181   26.9866 C   0  0  0  0  0  0  0  0  0  0  0  0
  -13.6749  -18.6524   25.9172 O   0  0  0  0  0  0  0  0  0  0  0  0
  -13.1462  -20.5506   27.2204 C   0  0  0  0  0  0  0  0  0  0  0  0
  -12.7278  -21.4152   26.2632 C   0  0  0  0  0  0  0  0  0  0  0  0
  -12.1757  -22.5676   26.8106 N   0  0  0  0  0  0  0  0  0  0  0  0
  -11.5876  -23.7275   26.3847 C   0  0  0  0  0  0  0  0  0  0  0  0
  -11.1736  -24.3626   27.5451 C   0  0  0  0  0  0  0  0  0  0  0  0
  -11.5350  -23.6476   28.6693 N   0  0  0  0  0  0  0  0  0  0  0  0
  -12.1421  -22.6091   28.1693 C   0  0  0  0  0  0  0  0  0  0  0  0
  -12.9966  -21.2697   28.8404 S   0  0  0  0  0  0  0  0  0  0  0  0
  -11.0413  -16.7824   26.8395 H   0  0  0  0  0  0  0  0  0  0  0  0
  -12.5055  -16.1045   26.2564 H   0  0  0  0  0  0  0  0  0  0  0  0
  -11.4725  -15.1554   27.3447 H   0  0  0  0  0  0  0  0  0  0  0  0
  -13.7173  -16.6051   28.1050 H   0  0  0  0  0  0  0  0  0  0  0  0
  -11.5935  -15.8424   30.5823 H   0  0  0  0  0  0  0  0  0  0  0  0
  -12.8785  -16.5538   31.0011 H   0  0  0  0  0  0  0  0  0  0  0  0
  -13.1344  -14.0209   29.8832 H   0  0  0  0  0  0  0  0  0  0  0  0
   -9.6489  -10.6403   31.6079 H   0  0  0  0  0  0  0  0  0  0  0  0
  -11.1120   -9.5277   33.7985 H   0  0  0  0  0  0  0  0  0  0  0  0
  -12.5975  -18.8742   28.8891 H   0  0  0  0  0  0  0  0  0  0  0  0
  -12.6406  -21.2103   25.2062 H   0  0  0  0  0  0  0  0  0  0  0  0
  -11.4858  -23.9782   25.3413 H   0  0  0  0  0  0  0  0  0  0  0  0
  -10.6461  -25.3047   27.6310 H   0  0  0  0  0  0  0  0  0  0  0  0
  1  2  1  0
  2  3  1  0
  3  4  1  0
  4  5  1  0
  5  6  2  0
  5  7  1  0
  7  8  2  0
  8  9  1  0
  9 10  1  0
 10 11  2  0
 11 12  1  0
  2 13  1  0
 13 14  1  0
 14 15  2  0
 14 16  1  0
 16 17  2  0
 17 18  1  0
 18 19  1  0
 19 20  2  0
 20 21  1  0
 21 22  2  0
 22 23  1  0
 11  7  1  0
 23 16  1  0
 22 18  1  0
  1 24  1  0
  1 25  1  0
  1 26  1  0
  2 27  1  0
  3 28  1  0
  3 29  1  0
  4 30  1  0
  9 31  1  0
 10 32  1  0
 13 33  1  0
 17 34  1  0
 19 35  1  0
 20 36  1  0
M  END
>  <Energy>  (593) 
862.52460326150879

>  <compound_id>  (593) 
67967

>  <target_id>  (593) 
1

>  <reference_id>  (593) 
7

>  <inspiration_ids>  (593) 
[7, 45]

>  <energy_score>  (593) 
782.5448686469613

>  <distance_score>  (593) 
10.038832327219868

>  <path>  (593) 
/opt/xchem-fragalysis-2/maxwin/BulkDock/SCRATCH/511022/C67967-P7/C67967-P7.minimised.mol

>  <scratch_subdir>  (593) 
/opt/xchem-fragalysis-2/maxwin/BulkDock/SCRATCH/511022/C67967-P7

>  <fragmenstein_runtime>  (593) 
19.862980604171753

>  <fragmenstein_outcome>  (593) 
too moved

>  <fragmenstein_mode>  (593) 
expansion

>  <fragmenstein_error>  (593) 


$$$$
C67967-P45
     RDKit          3D

 36 38  0  0  0  0  0  0  0  0999 V2000
   -8.1855  -17.9818   28.4807 C   0  0  0  0  0  0  0  0  0  0  0  0
   -7.5145  -18.7816   29.6112 C   0  0  0  0  0  0  0  0  0  0  0  0
   -7.2930  -17.6269   31.5231 C   0  0  0  0  0  0  0  0  0  0  0  0
   -8.1256  -15.9850   32.5907 N   0  0  0  0  0  0  0  0  0  0  0  0
   -7.9019  -14.0423   32.4159 C   0  0  0  0  0  0  0  0  0  0  0  0
   -7.0734  -13.8058   31.6124 O   0  0  0  0  0  0  0  0  0  0  0  0
   -8.7914  -12.2081   33.0405 C   0  0  0  0  0  0  0  0  0  0  0  0
   -9.5147  -10.9576   32.0108 N   0  0  0  0  0  0  0  0  0  0  0  0
  -10.4169   -9.5725   32.9150 N   0  0  0  0  0  0  0  0  0  0  0  0
   -9.6755   -8.5961   33.2208 C   0  0  0  0  0  0  0  0  0  0  0  0
   -9.3928  -10.3464   32.5905 C   0  0  0  0  0  0  0  0  0  0  0  0
   -9.5543   -9.8796   34.3950 F   0  0  0  0  0  0  0  0  0  0  0  0
   -7.5356  -20.4547   28.1246 N   0  0  0  0  0  0  0  0  0  0  0  0
   -7.5030  -22.2120   28.2792 C   0  0  0  0  0  0  0  0  0  0  0  0
   -7.5578  -22.8988   29.2391 O   0  0  0  0  0  0  0  0  0  0  0  0
   -7.2653  -23.0627   27.0754 C   0  0  0  0  0  0  0  0  0  0  0  0
   -8.2330  -24.0459   27.0609 C   0  0  0  0  0  0  0  0  0  0  0  0
   -7.7670  -25.3298   26.9648 N   0  0  0  0  0  0  0  0  0  0  0  0
   -8.3074  -26.5786   26.9718 C   0  0  0  0  0  0  0  0  0  0  0  0
   -7.2104  -27.4186   26.8873 C   0  0  0  0  0  0  0  0  0  0  0  0
   -6.0300  -26.7087   26.9630 N   0  0  0  0  0  0  0  0  0  0  0  0
   -6.4281  -25.4689   26.9811 C   0  0  0  0  0  0  0  0  0  0  0  0
   -5.6733  -23.9402   27.1646 S   0  0  0  0  0  0  0  0  0  0  0  0
   -8.1512  -18.6413   27.7260 H   0  0  0  0  0  0  0  0  0  0  0  0
   -7.8552  -17.0028   28.0771 H   0  0  0  0  0  0  0  0  0  0  0  0
   -9.0753  -18.4308   28.0977 H   0  0  0  0  0  0  0  0  0  0  0  0
   -6.4714  -18.2316   29.5809 H   0  0  0  0  0  0  0  0  0  0  0  0
   -6.7799  -18.0680   32.4141 H   0  0  0  0  0  0  0  0  0  0  0  0
   -6.3241  -17.1289   31.2771 H   0  0  0  0  0  0  0  0  0  0  0  0
   -8.9032  -16.1479   33.2262 H   0  0  0  0  0  0  0  0  0  0  0  0
  -10.7825   -8.9602   32.1690 H   0  0  0  0  0  0  0  0  0  0  0  0
   -9.7520   -7.5694   32.8414 H   0  0  0  0  0  0  0  0  0  0  0  0
   -7.3737  -20.2020   27.2005 H   0  0  0  0  0  0  0  0  0  0  0  0
   -9.2713  -23.9352   27.3467 H   0  0  0  0  0  0  0  0  0  0  0  0
   -9.3704  -26.7660   26.9841 H   0  0  0  0  0  0  0  0  0  0  0  0
   -7.2052  -28.4993   26.8031 H   0  0  0  0  0  0  0  0  0  0  0  0
  1  2  1  0
  2  3  1  0
  3  4  1  0
  4  5  1  0
  5  6  2  0
  5  7  1  0
  7  8  2  0
  8  9  1  0
  9 10  1  0
 10 11  2  0
 11 12  1  0
  2 13  1  0
 13 14  1  0
 14 15  2  0
 14 16  1  0
 16 17  2  0
 17 18  1  0
 18 19  1  0
 19 20  2  0
 20 21  1  0
 21 22  2  0
 22 23  1  0
 11  7  1  0
 23 16  1  0
 22 18  1  0
  1 24  1  0
  1 25  1  0
  1 26  1  0
  2 27  1  0
  3 28  1  0
  3 29  1  0
  4 30  1  0
  9 31  1  0
 10 32  1  0
 13 33  1  0
 17 34  1  0
 19 35  1  0
 20 36  1  0
M  END
>  <Energy>  (594) 
2015.0813142898205

>  <compound_id>  (594) 
67967

>  <target_id>  (594) 
1

>  <reference_id>  (594) 
45

>  <inspiration_ids>  (594) 
[7, 45]

>  <energy_score>  (594) 
1935.1015796752731

>  <distance_score>  (594) 
7.986504303067947

>  <path>  (594) 
/opt/xchem-fragalysis-2/maxwin/BulkDock/SCRATCH/511022/C67967-P45/C67967-P45.minimised.mol

>  <scratch_subdir>  (594) 
/opt/xchem-fragalysis-2/maxwin/BulkDock/SCRATCH/511022/C67967-P45

>  <fragmenstein_runtime>  (594) 
21.479649782180786

>  <fragmenstein_outcome>  (594) 
too moved

>  <fragmenstein_mode>  (594) 
expansion

>  <fragmenstein_error>  (594) 


$$$$
C67968-P7
     RDKit          3D

 39 41  0  0  0  0  0  0  0  0999 V2000
   -7.1327  -13.0977   27.0591 C   0  0  0  0  0  0  0  0  0  0  0  0
   -7.2992  -13.4971   28.5380 C   0  0  0  0  0  0  0  0  0  0  0  0
   -9.0867  -13.0073   29.0208 C   0  0  0  0  0  0  0  0  0  0  0  0
   -9.4491  -10.9773   30.1548 N   0  0  0  0  0  0  0  0  0  0  0  0
   -9.3019  -10.5188   31.9814 C   0  0  0  0  0  0  0  0  0  0  0  0
   -8.8420  -11.3379   32.7312 O   0  0  0  0  0  0  0  0  0  0  0  0
  -10.0720   -8.7238   33.0462 C   0  0  0  0  0  0  0  0  0  0  0  0
  -10.2229   -6.8529   33.9918 C   0  0  0  0  0  0  0  0  0  0  0  0
  -11.1033   -5.3561   34.9730 C   0  0  0  0  0  0  0  0  0  0  0  0
  -10.9273   -4.7014   36.1490 N   0  0  0  0  0  0  0  0  0  0  0  0
  -10.0728   -5.6184   36.2120 N   0  0  0  0  0  0  0  0  0  0  0  0
  -10.9858   -6.5841   35.1679 C   0  0  0  0  0  0  0  0  0  0  0  0
   -7.2716  -14.7926   28.3994 N   0  0  0  0  0  0  0  0  0  0  0  0
   -6.3004  -15.9014   29.0507 C   0  0  0  0  0  0  0  0  0  0  0  0
   -5.4443  -15.7962   29.8639 O   0  0  0  0  0  0  0  0  0  0  0  0
   -6.5581  -17.2209   28.4433 C   0  0  0  0  0  0  0  0  0  0  0  0
   -5.3847  -18.1698   27.6320 C   0  0  0  0  0  0  0  0  0  0  0  0
   -6.3488  -19.6670   26.8094 S   0  0  0  0  0  0  0  0  0  0  0  0
   -8.1612  -18.4877   27.8410 C   0  0  0  0  0  0  0  0  0  0  0  0
   -9.3089  -18.2073   27.2985 N   0  0  0  0  0  0  0  0  0  0  0  0
   -9.5462  -17.0393   26.6115 C   0  0  0  0  0  0  0  0  0  0  0  0
   -8.4636  -16.4111   26.8712 C   0  0  0  0  0  0  0  0  0  0  0  0
   -7.8013  -17.2125   27.9153 N   0  0  0  0  0  0  0  0  0  0  0  0
   -7.0998  -13.8802   26.3211 H   0  0  0  0  0  0  0  0  0  0  0  0
   -6.3042  -12.4357   26.8692 H   0  0  0  0  0  0  0  0  0  0  0  0
   -7.9736  -12.5100   26.7812 H   0  0  0  0  0  0  0  0  0  0  0  0
   -6.5217  -13.4465   29.3024 H   0  0  0  0  0  0  0  0  0  0  0  0
   -9.6575  -13.3281   28.0310 H   0  0  0  0  0  0  0  0  0  0  0  0
   -9.3505  -14.0100   29.5532 H   0  0  0  0  0  0  0  0  0  0  0  0
   -9.7771  -10.1435   29.6375 H   0  0  0  0  0  0  0  0  0  0  0  0
   -9.1749   -8.0478   32.9792 H   0  0  0  0  0  0  0  0  0  0  0  0
  -10.8455   -8.3958   32.3480 H   0  0  0  0  0  0  0  0  0  0  0  0
  -11.4808   -4.3746   34.5643 H   0  0  0  0  0  0  0  0  0  0  0  0
   -9.5132   -5.8215   37.0529 H   0  0  0  0  0  0  0  0  0  0  0  0
  -11.6714   -7.2605   35.5735 H   0  0  0  0  0  0  0  0  0  0  0  0
   -7.9040  -15.2067   27.8393 H   0  0  0  0  0  0  0  0  0  0  0  0
   -4.3609  -17.8114   27.4228 H   0  0  0  0  0  0  0  0  0  0  0  0
  -10.0760  -16.8747   25.7126 H   0  0  0  0  0  0  0  0  0  0  0  0
   -8.1193  -15.6193   26.2135 H   0  0  0  0  0  0  0  0  0  0  0  0
  1  2  1  0
  2  3  1  0
  3  4  1  0
  4  5  1  0
  5  6  2  0
  5  7  1  0
  7  8  1  0
  8  9  1  0
  9 10  2  0
 10 11  1  0
 11 12  1  0
  2 13  1  0
 13 14  1  0
 14 15  2  0
 14 16  1  0
 16 17  2  0
 17 18  1  0
 18 19  1  0
 19 20  2  0
 20 21  1  0
 21 22  2  0
 22 23  1  0
 12  8  2  0
 23 16  1  0
 23 19  1  0
  1 24  1  0
  1 25  1  0
  1 26  1  0
  2 27  1  0
  3 28  1  0
  3 29  1  0
  4 30  1  0
  7 31  1  0
  7 32  1  0
  9 33  1  0
 11 34  1  0
 12 35  1  0
 13 36  1  0
 17 37  1  0
 21 38  1  0
 22 39  1  0
M  END
>  <Energy>  (595) 
1561.6876286191666

>  <compound_id>  (595) 
67968

>  <target_id>  (595) 
1

>  <reference_id>  (595) 
7

>  <inspiration_ids>  (595) 
[7, 45]

>  <energy_score>  (595) 
1498.0299263809193

>  <distance_score>  (595) 
8.059088209250245

>  <path>  (595) 
/opt/xchem-fragalysis-2/maxwin/BulkDock/SCRATCH/511022/C67968-P7/C67968-P7.minimised.mol

>  <scratch_subdir>  (595) 
/opt/xchem-fragalysis-2/maxwin/BulkDock/SCRATCH/511022/C67968-P7

>  <fragmenstein_runtime>  (595) 
13.211162567138672

>  <fragmenstein_outcome>  (595) 
too moved

>  <fragmenstein_mode>  (595) 
expansion

>  <fragmenstein_error>  (595) 


$$$$
C67968-P45
     RDKit          3D

 39 41  0  0  0  0  0  0  0  0999 V2000
  -12.7041  -19.1992   36.3584 C   0  0  0  0  0  0  0  0  0  0  0  0
  -13.2805  -19.2986   34.9435 C   0  0  0  0  0  0  0  0  0  0  0  0
  -14.8128  -19.0133   34.9873 C   0  0  0  0  0  0  0  0  0  0  0  0
  -15.2965  -17.6148   34.8442 N   0  0  0  0  0  0  0  0  0  0  0  0
  -14.7621  -16.3476   35.3782 C   0  0  0  0  0  0  0  0  0  0  0  0
  -13.7598  -16.1231   35.9943 O   0  0  0  0  0  0  0  0  0  0  0  0
  -15.7736  -15.2061   35.0010 C   0  0  0  0  0  0  0  0  0  0  0  0
  -15.5956  -13.7951   35.5341 C   0  0  0  0  0  0  0  0  0  0  0  0
  -15.2602  -12.6091   34.8124 C   0  0  0  0  0  0  0  0  0  0  0  0
  -15.3441  -11.5004   35.5566 N   0  0  0  0  0  0  0  0  0  0  0  0
  -15.6279  -11.9643   36.7764 N   0  0  0  0  0  0  0  0  0  0  0  0
  -15.8749  -13.3079   36.7998 C   0  0  0  0  0  0  0  0  0  0  0  0
  -12.8408  -20.6188   34.3662 N   0  0  0  0  0  0  0  0  0  0  0  0
  -13.3814  -21.4083   33.2801 C   0  0  0  0  0  0  0  0  0  0  0  0
  -14.3652  -21.2514   32.6146 O   0  0  0  0  0  0  0  0  0  0  0  0
  -12.4835  -22.5674   32.8892 C   0  0  0  0  0  0  0  0  0  0  0  0
  -12.0298  -23.4797   33.7750 C   0  0  0  0  0  0  0  0  0  0  0  0
  -11.1002  -24.8028   33.0410 S   0  0  0  0  0  0  0  0  0  0  0  0
  -11.3882  -24.0980   31.4905 C   0  0  0  0  0  0  0  0  0  0  0  0
  -11.0499  -24.4267   30.2744 N   0  0  0  0  0  0  0  0  0  0  0  0
  -11.6259  -23.4363   29.5134 C   0  0  0  0  0  0  0  0  0  0  0  0
  -12.2942  -22.5165   30.3039 C   0  0  0  0  0  0  0  0  0  0  0  0
  -12.1264  -22.9486   31.5900 N   0  0  0  0  0  0  0  0  0  0  0  0
  -11.6134  -19.1658   36.3234 H   0  0  0  0  0  0  0  0  0  0  0  0
  -13.0404  -18.3030   36.8834 H   0  0  0  0  0  0  0  0  0  0  0  0
  -12.9909  -20.0680   36.9617 H   0  0  0  0  0  0  0  0  0  0  0  0
  -12.7965  -18.5352   34.3257 H   0  0  0  0  0  0  0  0  0  0  0  0
  -15.3127  -19.5492   34.1760 H   0  0  0  0  0  0  0  0  0  0  0  0
  -15.2447  -19.3937   35.9202 H   0  0  0  0  0  0  0  0  0  0  0  0
  -16.2141  -17.4472   34.4461 H   0  0  0  0  0  0  0  0  0  0  0  0
  -15.8043  -15.1598   33.9088 H   0  0  0  0  0  0  0  0  0  0  0  0
  -16.7671  -15.5408   35.3307 H   0  0  0  0  0  0  0  0  0  0  0  0
  -15.0046  -12.5134   33.7631 H   0  0  0  0  0  0  0  0  0  0  0  0
  -15.6704  -11.3067   37.5452 H   0  0  0  0  0  0  0  0  0  0  0  0
  -16.1838  -13.8003   37.7093 H   0  0  0  0  0  0  0  0  0  0  0  0
  -11.9437  -21.0055   34.6428 H   0  0  0  0  0  0  0  0  0  0  0  0
  -12.2236  -23.4704   34.8406 H   0  0  0  0  0  0  0  0  0  0  0  0
  -11.5416  -23.4352   28.4332 H   0  0  0  0  0  0  0  0  0  0  0  0
  -12.8759  -21.6519   30.0382 H   0  0  0  0  0  0  0  0  0  0  0  0
  1  2  1  0
  2  3  1  0
  3  4  1  0
  4  5  1  0
  5  6  2  0
  5  7  1  0
  7  8  1  0
  8  9  1  0
  9 10  2  0
 10 11  1  0
 11 12  1  0
  2 13  1  0
 13 14  1  0
 14 15  2  0
 14 16  1  0
 16 17  2  0
 17 18  1  0
 18 19  1  0
 19 20  2  0
 20 21  1  0
 21 22  2  0
 22 23  1  0
 12  8  2  0
 23 16  1  0
 23 19  1  0
  1 24  1  0
  1 25  1  0
  1 26  1  0
  2 27  1  0
  3 28  1  0
  3 29  1  0
  4 30  1  0
  7 31  1  0
  7 32  1  0
  9 33  1  0
 11 34  1  0
 12 35  1  0
 13 36  1  0
 17 37  1  0
 21 38  1  0
 22 39  1  0
M  END
>  <Energy>  (596) 
42.059209398550117

>  <compound_id>  (596) 
67968

>  <target_id>  (596) 
1

>  <reference_id>  (596) 
45

>  <inspiration_ids>  (596) 
[7, 45]

>  <energy_score>  (596) 
-21.598492839682194

>  <distance_score>  (596) 
10.485881102645402

>  <path>  (596) 
/opt/xchem-fragalysis-2/maxwin/BulkDock/SCRATCH/511022/C67968-P45/C67968-P45.minimised.mol

>  <scratch_subdir>  (596) 
/opt/xchem-fragalysis-2/maxwin/BulkDock/SCRATCH/511022/C67968-P45

>  <fragmenstein_runtime>  (596) 
18.87078285217285

>  <fragmenstein_outcome>  (596) 
too moved

>  <fragmenstein_mode>  (596) 
expansion

>  <fragmenstein_error>  (596) 


$$$$
C76525-P7
     RDKit          3D

 38 40  0  0  0  0  0  0  0  0999 V2000
  -12.7900   -2.8316   37.2406 C   0  0  0  0  0  0  0  0  0  0  0  0
  -12.5445   -4.1484   36.7717 O   0  0  0  0  0  0  0  0  0  0  0  0
  -11.2893   -4.2688   36.0634 C   0  0  0  0  0  0  0  0  0  0  0  0
  -11.0313   -5.8994   35.5155 C   0  0  0  0  0  0  0  0  0  0  0  0
  -10.3897   -6.8477   34.1791 N   0  0  0  0  0  0  0  0  0  0  0  0
  -10.8342   -8.5340   33.3345 N   0  0  0  0  0  0  0  0  0  0  0  0
   -9.9965   -9.6938   33.1368 C   0  0  0  0  0  0  0  0  0  0  0  0
   -9.5917  -11.4384   31.8732 C   0  0  0  0  0  0  0  0  0  0  0  0
   -9.3856  -10.9200   30.8033 O   0  0  0  0  0  0  0  0  0  0  0  0
   -9.5341  -13.7039   31.5620 N   0  0  0  0  0  0  0  0  0  0  0  0
   -9.0264  -14.8913   29.7208 C   0  0  0  0  0  0  0  0  0  0  0  0
   -8.2899  -16.8037   28.4463 C   0  0  0  0  0  0  0  0  0  0  0  0
   -8.9586  -18.4583   28.1582 C   0  0  0  0  0  0  0  0  0  0  0  0
   -9.5602  -20.7163   27.6220 S   0  0  0  0  0  0  0  0  0  0  0  0
   -7.7875  -20.6152   27.5148 C   0  0  0  0  0  0  0  0  0  0  0  0
   -7.2447  -21.8070   27.6771 N   0  0  0  0  0  0  0  0  0  0  0  0
   -6.0775  -21.3485   27.5030 C   0  0  0  0  0  0  0  0  0  0  0  0
   -6.5016  -19.7766   26.9887 C   0  0  0  0  0  0  0  0  0  0  0  0
   -7.9012  -18.7474   27.8833 N   0  0  0  0  0  0  0  0  0  0  0  0
   -9.2111   -7.9286   33.0064 C   0  0  0  0  0  0  0  0  0  0  0  0
   -8.1863   -7.0683   33.0094 C   0  0  0  0  0  0  0  0  0  0  0  0
   -8.7440   -6.6027   34.2132 C   0  0  0  0  0  0  0  0  0  0  0  0
   -8.0505   -6.0511   35.0723 O   0  0  0  0  0  0  0  0  0  0  0  0
  -13.7690   -2.8138   37.7262 H   0  0  0  0  0  0  0  0  0  0  0  0
  -12.7973   -2.1237   36.4069 H   0  0  0  0  0  0  0  0  0  0  0  0
  -12.0294   -2.5414   37.9714 H   0  0  0  0  0  0  0  0  0  0  0  0
  -11.2898   -3.5502   35.2324 H   0  0  0  0  0  0  0  0  0  0  0  0
  -10.5188   -3.9693   36.7734 H   0  0  0  0  0  0  0  0  0  0  0  0
  -11.6759   -5.4576   34.8624 H   0  0  0  0  0  0  0  0  0  0  0  0
  -10.0564   -5.6232   35.8687 H   0  0  0  0  0  0  0  0  0  0  0  0
   -9.6170  -14.1815   32.5224 H   0  0  0  0  0  0  0  0  0  0  0  0
   -8.4429  -14.1378   29.0929 H   0  0  0  0  0  0  0  0  0  0  0  0
  -10.0226  -14.4045   29.3429 H   0  0  0  0  0  0  0  0  0  0  0  0
   -8.2665  -18.3257   29.3159 H   0  0  0  0  0  0  0  0  0  0  0  0
   -5.2821  -22.0115   27.2186 H   0  0  0  0  0  0  0  0  0  0  0  0
   -5.6806  -19.1152   27.0058 H   0  0  0  0  0  0  0  0  0  0  0  0
   -9.8834   -7.3832   32.2750 H   0  0  0  0  0  0  0  0  0  0  0  0
   -7.1146   -7.0051   33.0768 H   0  0  0  0  0  0  0  0  0  0  0  0
  1  2  1  0
  2  3  1  0
  3  4  1  0
  4  5  1  0
  5  6  1  0
  6  7  2  0
  7  8  1  0
  8  9  2  0
  8 10  1  0
 10 11  1  0
 11 12  1  0
 12 13  2  0
 13 14  1  0
 14 15  1  0
 15 16  2  0
 16 17  1  0
 17 18  2  0
 18 19  1  0
  7 20  1  0
 20 21  2  0
 21 22  1  0
 22 23  2  0
 22  5  1  0
 19 12  1  0
 19 15  1  0
  1 24  1  0
  1 25  1  0
  1 26  1  0
  3 27  1  0
  3 28  1  0
  4 29  1  0
  4 30  1  0
 10 31  1  0
 11 32  1  0
 11 33  1  0
 13 34  1  0
 17 35  1  0
 18 36  1  0
 20 37  1  0
 21 38  1  0
M  END
>  <Energy>  (597) 
3179.6619084491244

>  <compound_id>  (597) 
76525

>  <target_id>  (597) 
1

>  <reference_id>  (597) 
7

>  <inspiration_ids>  (597) 
[7, 45]

>  <energy_score>  (597) 
3046.8552082067963

>  <distance_score>  (597) 
7.322827968804452

>  <path>  (597) 
/opt/xchem-fragalysis-2/maxwin/BulkDock/SCRATCH/511022/C76525-P7/C76525-P7.minimised.mol

>  <scratch_subdir>  (597) 
/opt/xchem-fragalysis-2/maxwin/BulkDock/SCRATCH/511022/C76525-P7

>  <fragmenstein_runtime>  (597) 
11.845754146575928

>  <fragmenstein_outcome>  (597) 
too moved

>  <fragmenstein_mode>  (597) 
expansion

>  <fragmenstein_error>  (597) 


$$$$
C76525-P45
     RDKit          3D

 38 40  0  0  0  0  0  0  0  0999 V2000
  -18.2169   -6.1296   34.8059 C   0  0  0  0  0  0  0  0  0  0  0  0
  -17.4809   -7.2090   34.2435 O   0  0  0  0  0  0  0  0  0  0  0  0
  -17.8406   -7.4777   32.8702 C   0  0  0  0  0  0  0  0  0  0  0  0
  -17.0730   -8.7212   32.3672 C   0  0  0  0  0  0  0  0  0  0  0  0
  -16.8313   -8.9176   30.9369 N   0  0  0  0  0  0  0  0  0  0  0  0
  -16.8836  -10.2554   30.4843 N   0  0  0  0  0  0  0  0  0  0  0  0
  -16.2980  -10.5398   29.3516 C   0  0  0  0  0  0  0  0  0  0  0  0
  -16.5756  -11.8737   28.6016 C   0  0  0  0  0  0  0  0  0  0  0  0
  -17.6834  -11.8865   28.1418 O   0  0  0  0  0  0  0  0  0  0  0  0
  -15.4854  -12.8300   28.4759 N   0  0  0  0  0  0  0  0  0  0  0  0
  -15.3699  -14.0506   27.6718 C   0  0  0  0  0  0  0  0  0  0  0  0
  -14.5698  -15.2688   28.0703 C   0  0  0  0  0  0  0  0  0  0  0  0
  -15.0233  -16.2845   28.8443 C   0  0  0  0  0  0  0  0  0  0  0  0
  -14.1021  -17.7942   28.6913 S   0  0  0  0  0  0  0  0  0  0  0  0
  -13.0780  -17.0045   27.5460 C   0  0  0  0  0  0  0  0  0  0  0  0
  -12.0295  -17.3630   26.8549 N   0  0  0  0  0  0  0  0  0  0  0  0
  -11.7420  -16.2349   26.1137 C   0  0  0  0  0  0  0  0  0  0  0  0
  -12.6072  -15.1986   26.4097 C   0  0  0  0  0  0  0  0  0  0  0  0
  -13.4545  -15.7041   27.3528 N   0  0  0  0  0  0  0  0  0  0  0  0
  -15.5016   -9.5604   28.5737 C   0  0  0  0  0  0  0  0  0  0  0  0
  -15.4932   -8.2970   28.9953 C   0  0  0  0  0  0  0  0  0  0  0  0
  -16.2057   -7.9074   30.2206 C   0  0  0  0  0  0  0  0  0  0  0  0
  -16.1638   -6.7269   30.5433 O   0  0  0  0  0  0  0  0  0  0  0  0
  -18.0917   -5.2206   34.2109 H   0  0  0  0  0  0  0  0  0  0  0  0
  -17.8418   -5.9457   35.8159 H   0  0  0  0  0  0  0  0  0  0  0  0
  -19.2774   -6.3911   34.8665 H   0  0  0  0  0  0  0  0  0  0  0  0
  -17.6402   -6.5827   32.2811 H   0  0  0  0  0  0  0  0  0  0  0  0
  -18.9173   -7.6761   32.8103 H   0  0  0  0  0  0  0  0  0  0  0  0
  -17.5634   -9.6172   32.7676 H   0  0  0  0  0  0  0  0  0  0  0  0
  -16.0712   -8.7184   32.7691 H   0  0  0  0  0  0  0  0  0  0  0  0
  -14.6602  -12.4540   28.9333 H   0  0  0  0  0  0  0  0  0  0  0  0
  -15.0319  -13.7019   26.6882 H   0  0  0  0  0  0  0  0  0  0  0  0
  -16.4048  -14.3753   27.4969 H   0  0  0  0  0  0  0  0  0  0  0  0
  -15.9391  -16.2567   29.4237 H   0  0  0  0  0  0  0  0  0  0  0  0
  -10.9190  -16.2059   25.4107 H   0  0  0  0  0  0  0  0  0  0  0  0
  -12.6740  -14.1859   26.0407 H   0  0  0  0  0  0  0  0  0  0  0  0
  -15.0078   -9.8802   27.6672 H   0  0  0  0  0  0  0  0  0  0  0  0
  -14.9685   -7.5122   28.4666 H   0  0  0  0  0  0  0  0  0  0  0  0
  1  2  1  0
  2  3  1  0
  3  4  1  0
  4  5  1  0
  5  6  1  0
  6  7  2  0
  7  8  1  0
  8  9  2  0
  8 10  1  0
 10 11  1  0
 11 12  1  0
 12 13  2  0
 13 14  1  0
 14 15  1  0
 15 16  2  0
 16 17  1  0
 17 18  2  0
 18 19  1  0
  7 20  1  0
 20 21  2  0
 21 22  1  0
 22 23  2  0
 22  5  1  0
 19 12  1  0
 19 15  1  0
  1 24  1  0
  1 25  1  0
  1 26  1  0
  3 27  1  0
  3 28  1  0
  4 29  1  0
  4 30  1  0
 10 31  1  0
 11 32  1  0
 11 33  1  0
 13 34  1  0
 17 35  1  0
 18 36  1  0
 20 37  1  0
 21 38  1  0
M  END
>  <Energy>  (598) 
120.11157878655088

>  <compound_id>  (598) 
76525

>  <target_id>  (598) 
1

>  <reference_id>  (598) 
45

>  <inspiration_ids>  (598) 
[7, 45]

>  <energy_score>  (598) 
-12.6951214557522

>  <distance_score>  (598) 
11.539346837728708

>  <path>  (598) 
/opt/xchem-fragalysis-2/maxwin/BulkDock/SCRATCH/511022/C76525-P45/C76525-P45.minimised.mol

>  <scratch_subdir>  (598) 
/opt/xchem-fragalysis-2/maxwin/BulkDock/SCRATCH/511022/C76525-P45

>  <fragmenstein_runtime>  (598) 
14.782300233840942

>  <fragmenstein_outcome>  (598) 
too moved

>  <fragmenstein_mode>  (598) 
expansion

>  <fragmenstein_error>  (598) 


$$$$
C76526-P7
     RDKit          3D

 51 54  0  0  0  0  0  0  0  0999 V2000
  -14.0587   -3.7044   37.7056 C   0  0  0  0  0  0  0  0  0  0  0  0
  -13.3103   -4.4231   36.7292 O   0  0  0  0  0  0  0  0  0  0  0  0
  -12.1689   -3.7036   36.2765 C   0  0  0  0  0  0  0  0  0  0  0  0
  -11.3513   -4.1933   34.8807 C   0  0  0  0  0  0  0  0  0  0  0  0
  -10.5981   -5.9526   34.5626 N   0  0  0  0  0  0  0  0  0  0  0  0
  -10.2030   -7.3455   33.0892 N   0  0  0  0  0  0  0  0  0  0  0  0
  -10.0963   -9.1063   33.2057 C   0  0  0  0  0  0  0  0  0  0  0  0
   -9.3512  -10.9202   32.2593 C   0  0  0  0  0  0  0  0  0  0  0  0
   -8.9923  -10.6683   31.1616 O   0  0  0  0  0  0  0  0  0  0  0  0
   -9.2817  -12.8625   32.8016 N   0  0  0  0  0  0  0  0  0  0  0  0
   -8.8120  -14.5749   31.7349 C   0  0  0  0  0  0  0  0  0  0  0  0
   -8.8563  -14.5327   29.7627 C   0  0  0  0  0  0  0  0  0  0  0  0
   -8.1326  -15.8821   28.4309 C   0  0  0  0  0  0  0  0  0  0  0  0
   -8.1507  -17.7419   28.8516 C   0  0  0  0  0  0  0  0  0  0  0  0
   -7.8620  -17.9847   30.7975 C   0  0  0  0  0  0  0  0  0  0  0  0
   -8.4606  -16.4713   32.2078 C   0  0  0  0  0  0  0  0  0  0  0  0
   -8.4118  -19.0422   29.0885 N   0  0  0  0  0  0  0  0  0  0  0  0
   -9.7821  -20.3647   29.1421 C   0  0  0  0  0  0  0  0  0  0  0  0
   -8.5667  -19.2782   28.2019 N   0  0  0  0  0  0  0  0  0  0  0  0
   -7.5887  -20.6701   27.4445 C   0  0  0  0  0  0  0  0  0  0  0  0
   -7.9135  -22.4804   27.5505 C   0  0  0  0  0  0  0  0  0  0  0  0
   -9.4093  -23.5228   27.6801 C   0  0  0  0  0  0  0  0  0  0  0  0
  -10.7143  -23.0313   28.2775 C   0  0  0  0  0  0  0  0  0  0  0  0
  -10.7833  -21.5490   28.2716 C   0  0  0  0  0  0  0  0  0  0  0  0
   -9.5383   -7.4513   33.7496 C   0  0  0  0  0  0  0  0  0  0  0  0
  -10.9134   -6.9540   34.7513 C   0  0  0  0  0  0  0  0  0  0  0  0
  -10.7964   -6.0443   35.8385 C   0  0  0  0  0  0  0  0  0  0  0  0
  -10.1633   -5.2331   36.4684 O   0  0  0  0  0  0  0  0  0  0  0  0
  -14.8948   -4.3317   38.0256 H   0  0  0  0  0  0  0  0  0  0  0  0
  -13.4343   -3.4792   38.5752 H   0  0  0  0  0  0  0  0  0  0  0  0
  -14.4582   -2.7808   37.2777 H   0  0  0  0  0  0  0  0  0  0  0  0
  -11.4733   -3.5833   37.1171 H   0  0  0  0  0  0  0  0  0  0  0  0
  -12.4968   -2.6801   36.0367 H   0  0  0  0  0  0  0  0  0  0  0  0
  -10.6113   -3.4116   35.1478 H   0  0  0  0  0  0  0  0  0  0  0  0
  -11.6804   -3.6064   33.9991 H   0  0  0  0  0  0  0  0  0  0  0  0
   -9.5144  -12.9356   33.7245 H   0  0  0  0  0  0  0  0  0  0  0  0
   -9.1975  -13.7917   29.0486 H   0  0  0  0  0  0  0  0  0  0  0  0
   -7.0241  -15.6952   28.5175 H   0  0  0  0  0  0  0  0  0  0  0  0
   -8.0244  -16.6472   33.2150 H   0  0  0  0  0  0  0  0  0  0  0  0
   -7.0713  -19.9239   26.8178 H   0  0  0  0  0  0  0  0  0  0  0  0
   -6.5781  -20.8890   27.7059 H   0  0  0  0  0  0  0  0  0  0  0  0
   -7.4599  -22.8484   26.6258 H   0  0  0  0  0  0  0  0  0  0  0  0
   -7.1800  -22.9125   28.2143 H   0  0  0  0  0  0  0  0  0  0  0  0
   -9.6464  -23.9582   26.7042 H   0  0  0  0  0  0  0  0  0  0  0  0
   -9.1830  -24.4031   28.3104 H   0  0  0  0  0  0  0  0  0  0  0  0
  -11.5388  -23.4310   27.6691 H   0  0  0  0  0  0  0  0  0  0  0  0
  -10.9248  -23.4492   29.2734 H   0  0  0  0  0  0  0  0  0  0  0  0
  -10.9905  -21.3234   27.2192 H   0  0  0  0  0  0  0  0  0  0  0  0
  -11.7455  -21.3623   28.7915 H   0  0  0  0  0  0  0  0  0  0  0  0
   -8.4970   -7.0107   33.7612 H   0  0  0  0  0  0  0  0  0  0  0  0
  -11.6621   -7.7385   34.9124 H   0  0  0  0  0  0  0  0  0  0  0  0
  1  2  1  0
  2  3  1  0
  3  4  1  0
  4  5  1  0
  5  6  1  0
  6  7  2  0
  7  8  1  0
  8  9  2  0
  8 10  1  0
 10 11  1  0
 11 12  2  0
 12 13  1  0
 13 14  2  0
 14 15  1  0
 15 16  2  0
 15 17  1  0
 17 18  2  0
 18 19  1  0
 19 20  1  0
 20 21  1  0
 21 22  1  0
 22 23  1  0
 23 24  1  0
  7 25  1  0
 25 26  2  0
 26 27  1  0
 27 28  2  0
 27  5  1  0
 16 11  1  0
 24 18  1  0
 19 14  1  0
  1 29  1  0
  1 30  1  0
  1 31  1  0
  3 32  1  0
  3 33  1  0
  4 34  1  0
  4 35  1  0
 10 36  1  0
 12 37  1  0
 13 38  1  0
 16 39  1  0
 20 40  1  0
 20 41  1  0
 21 42  1  0
 21 43  1  0
 22 44  1  0
 22 45  1  0
 23 46  1  0
 23 47  1  0
 24 48  1  0
 24 49  1  0
 25 50  1  0
 26 51  1  0
M  END
>  <Energy>  (599) 
3329.9958844505963

>  <compound_id>  (599) 
76526

>  <target_id>  (599) 
1

>  <reference_id>  (599) 
7

>  <inspiration_ids>  (599) 
[7, 45]

>  <energy_score>  (599) 
3175.0535258112122

>  <distance_score>  (599) 
6.443786122519297

>  <path>  (599) 
/opt/xchem-fragalysis-2/maxwin/BulkDock/SCRATCH/511022/C76526-P7/C76526-P7.minimised.mol

>  <scratch_subdir>  (599) 
/opt/xchem-fragalysis-2/maxwin/BulkDock/SCRATCH/511022/C76526-P7

>  <fragmenstein_runtime>  (599) 
26.109587907791138

>  <fragmenstein_outcome>  (599) 
too moved

>  <fragmenstein_mode>  (599) 
expansion

>  <fragmenstein_error>  (599) 


$$$$
C76526-P45
     RDKit          3D

 51 54  0  0  0  0  0  0  0  0999 V2000
  -14.1729   -3.5019   38.2023 C   0  0  0  0  0  0  0  0  0  0  0  0
  -13.9991   -4.4237   37.1308 O   0  0  0  0  0  0  0  0  0  0  0  0
  -12.6948   -4.2970   36.5147 C   0  0  0  0  0  0  0  0  0  0  0  0
  -12.5521   -5.2718   35.1876 C   0  0  0  0  0  0  0  0  0  0  0  0
  -11.3645   -6.2019   34.8710 N   0  0  0  0  0  0  0  0  0  0  0  0
  -11.0296   -6.7064   33.4421 N   0  0  0  0  0  0  0  0  0  0  0  0
  -10.3244   -7.5814   32.5411 C   0  0  0  0  0  0  0  0  0  0  0  0
   -9.7115   -9.3793   32.9574 C   0  0  0  0  0  0  0  0  0  0  0  0
   -9.9183   -9.5928   34.1211 O   0  0  0  0  0  0  0  0  0  0  0  0
   -8.6167  -10.5886   31.7634 N   0  0  0  0  0  0  0  0  0  0  0  0
   -7.4498  -12.2067   32.1183 C   0  0  0  0  0  0  0  0  0  0  0  0
   -6.1174  -12.4587   31.4367 C   0  0  0  0  0  0  0  0  0  0  0  0
   -5.6287  -13.8347   30.3501 C   0  0  0  0  0  0  0  0  0  0  0  0
   -5.6439  -15.5951   30.3134 C   0  0  0  0  0  0  0  0  0  0  0  0
   -6.1566  -15.6668   31.6443 C   0  0  0  0  0  0  0  0  0  0  0  0
   -7.3114  -14.1181   31.9753 C   0  0  0  0  0  0  0  0  0  0  0  0
   -6.7232  -17.4401   31.5542 N   0  0  0  0  0  0  0  0  0  0  0  0
   -6.8312  -18.2564   30.1554 C   0  0  0  0  0  0  0  0  0  0  0  0
   -5.7230  -17.1784   29.4911 N   0  0  0  0  0  0  0  0  0  0  0  0
   -5.3309  -18.2813   28.0632 C   0  0  0  0  0  0  0  0  0  0  0  0
   -5.7050  -19.9392   26.9383 C   0  0  0  0  0  0  0  0  0  0  0  0
   -6.1178  -21.4614   27.5948 C   0  0  0  0  0  0  0  0  0  0  0  0
   -7.5574  -20.9409   27.8917 C   0  0  0  0  0  0  0  0  0  0  0  0
   -8.0878  -19.0895   28.7276 C   0  0  0  0  0  0  0  0  0  0  0  0
   -8.9139   -6.9403   33.4452 C   0  0  0  0  0  0  0  0  0  0  0  0
   -8.7395   -6.2498   34.6288 C   0  0  0  0  0  0  0  0  0  0  0  0
  -10.3010   -5.6482   35.4512 C   0  0  0  0  0  0  0  0  0  0  0  0
  -10.4162   -4.6817   36.2037 O   0  0  0  0  0  0  0  0  0  0  0  0
  -14.0650   -2.4728   37.8486 H   0  0  0  0  0  0  0  0  0  0  0  0
  -15.1820   -3.6299   38.6027 H   0  0  0  0  0  0  0  0  0  0  0  0
  -13.4530   -3.7038   39.0011 H   0  0  0  0  0  0  0  0  0  0  0  0
  -12.0368   -4.4606   37.3575 H   0  0  0  0  0  0  0  0  0  0  0  0
  -12.4431   -3.2730   36.2578 H   0  0  0  0  0  0  0  0  0  0  0  0
  -12.5648   -4.5552   34.3868 H   0  0  0  0  0  0  0  0  0  0  0  0
  -13.4455   -5.8813   35.1480 H   0  0  0  0  0  0  0  0  0  0  0  0
   -8.6502  -10.2535   30.7964 H   0  0  0  0  0  0  0  0  0  0  0  0
   -5.4875  -11.5917   31.2334 H   0  0  0  0  0  0  0  0  0  0  0  0
   -4.6645  -13.3993   30.0199 H   0  0  0  0  0  0  0  0  0  0  0  0
   -8.2179  -14.6299   32.3645 H   0  0  0  0  0  0  0  0  0  0  0  0
   -6.2985  -17.7494   28.2254 H   0  0  0  0  0  0  0  0  0  0  0  0
   -5.3513  -17.9290   27.1491 H   0  0  0  0  0  0  0  0  0  0  0  0
   -5.0977  -20.1104   26.0168 H   0  0  0  0  0  0  0  0  0  0  0  0
   -6.6090  -19.6888   26.4973 H   0  0  0  0  0  0  0  0  0  0  0  0
   -5.5434  -21.9616   28.3729 H   0  0  0  0  0  0  0  0  0  0  0  0
   -6.1310  -22.3481   26.9280 H   0  0  0  0  0  0  0  0  0  0  0  0
   -7.9948  -21.1393   26.9910 H   0  0  0  0  0  0  0  0  0  0  0  0
   -7.9781  -21.9304   28.2421 H   0  0  0  0  0  0  0  0  0  0  0  0
   -8.8862  -18.7328   28.0804 H   0  0  0  0  0  0  0  0  0  0  0  0
   -7.9357  -18.1019   28.2651 H   0  0  0  0  0  0  0  0  0  0  0  0
   -9.1722   -7.7739   33.9447 H   0  0  0  0  0  0  0  0  0  0  0  0
   -7.8217   -5.9152   35.0932 H   0  0  0  0  0  0  0  0  0  0  0  0
  1  2  1  0
  2  3  1  0
  3  4  1  0
  4  5  1  0
  5  6  1  0
  6  7  2  0
  7  8  1  0
  8  9  2  0
  8 10  1  0
 10 11  1  0
 11 12  2  0
 12 13  1  0
 13 14  2  0
 14 15  1  0
 15 16  2  0
 15 17  1  0
 17 18  2  0
 18 19  1  0
 19 20  1  0
 20 21  1  0
 21 22  1  0
 22 23  1  0
 23 24  1  0
  7 25  1  0
 25 26  2  0
 26 27  1  0
 27 28  2  0
 27  5  1  0
 16 11  1  0
 24 18  1  0
 19 14  1  0
  1 29  1  0
  1 30  1  0
  1 31  1  0
  3 32  1  0
  3 33  1  0
  4 34  1  0
  4 35  1  0
 10 36  1  0
 12 37  1  0
 13 38  1  0
 16 39  1  0
 20 40  1  0
 20 41  1  0
 21 42  1  0
 21 43  1  0
 22 44  1  0
 22 45  1  0
 23 46  1  0
 23 47  1  0
 24 48  1  0
 24 49  1  0
 25 50  1  0
 26 51  1  0
M  END
>  <Energy>  (600) 
1921.4368462486702

>  <compound_id>  (600) 
76526

>  <target_id>  (600) 
1

>  <reference_id>  (600) 
45

>  <inspiration_ids>  (600) 
[7, 45]

>  <energy_score>  (600) 
1766.494487609345

>  <distance_score>  (600) 
7.431950870893705

>  <path>  (600) 
/opt/xchem-fragalysis-2/maxwin/BulkDock/SCRATCH/511022/C76526-P45/C76526-P45.minimised.mol

>  <scratch_subdir>  (600) 
/opt/xchem-fragalysis-2/maxwin/BulkDock/SCRATCH/511022/C76526-P45

>  <fragmenstein_runtime>  (600) 
21.41477680206299

>  <fragmenstein_outcome>  (600) 
too moved

>  <fragmenstein_mode>  (600) 
expansion

>  <fragmenstein_error>  (600) 


$$$$
C26417-P7
     RDKit          3D

 44 46  0  0  0  0  0  0  0  0999 V2000
  -11.5635   -4.8674   35.8770 C   0  0  0  0  0  0  0  0  0  0  0  0
  -11.0977   -6.2257   35.6681 O   0  0  0  0  0  0  0  0  0  0  0  0
  -11.7236   -7.8299   35.0387 C   0  0  0  0  0  0  0  0  0  0  0  0
  -11.1756   -9.6258   34.2814 C   0  0  0  0  0  0  0  0  0  0  0  0
   -9.7702   -9.9927   32.7164 C   0  0  0  0  0  0  0  0  0  0  0  0
   -8.9931  -12.0555   33.1128 C   0  0  0  0  0  0  0  0  0  0  0  0
   -8.4452  -12.0100   34.1675 O   0  0  0  0  0  0  0  0  0  0  0  0
   -9.0124  -14.0095   32.4919 O   0  0  0  0  0  0  0  0  0  0  0  0
   -8.4604  -16.0592   32.4182 C   0  0  0  0  0  0  0  0  0  0  0  0
   -7.7667  -17.7614   31.0577 C   0  0  0  0  0  0  0  0  0  0  0  0
   -7.0177  -18.7495   30.4175 C   0  0  0  0  0  0  0  0  0  0  0  0
   -8.0518  -19.4194   28.7800 C   0  0  0  0  0  0  0  0  0  0  0  0
   -7.6130  -20.3764   27.6122 C   0  0  0  0  0  0  0  0  0  0  0  0
   -8.1318  -18.7082   27.8353 C   0  0  0  0  0  0  0  0  0  0  0  0
   -6.6702  -19.1921   26.9887 N   0  0  0  0  0  0  0  0  0  0  0  0
   -5.6493  -17.9161   27.7179 C   0  0  0  0  0  0  0  0  0  0  0  0
   -6.3059  -17.3089   28.8278 C   0  0  0  0  0  0  0  0  0  0  0  0
   -8.1034  -17.7083   29.0056 N   0  0  0  0  0  0  0  0  0  0  0  0
  -10.0438   -8.6062   33.4214 C   0  0  0  0  0  0  0  0  0  0  0  0
   -9.0562   -6.9290   33.7222 C   0  0  0  0  0  0  0  0  0  0  0  0
   -7.8682   -7.0351   32.9434 C   0  0  0  0  0  0  0  0  0  0  0  0
   -9.2034   -7.9045   32.7593 C   0  0  0  0  0  0  0  0  0  0  0  0
  -10.9015   -4.4290   36.6333 H   0  0  0  0  0  0  0  0  0  0  0  0
  -11.4347   -4.2012   35.0322 H   0  0  0  0  0  0  0  0  0  0  0  0
  -12.5745   -4.7469   36.2771 H   0  0  0  0  0  0  0  0  0  0  0  0
  -11.4630   -7.0551   34.3542 H   0  0  0  0  0  0  0  0  0  0  0  0
  -12.7501   -8.1887   35.4767 H   0  0  0  0  0  0  0  0  0  0  0  0
  -12.1407  -10.1504   34.0643 H   0  0  0  0  0  0  0  0  0  0  0  0
  -10.9718  -10.1973   35.2392 H   0  0  0  0  0  0  0  0  0  0  0  0
   -7.6206  -15.9776   33.1387 H   0  0  0  0  0  0  0  0  0  0  0  0
   -9.2960  -16.3668   33.0704 H   0  0  0  0  0  0  0  0  0  0  0  0
   -6.3514  -19.4349   30.9792 H   0  0  0  0  0  0  0  0  0  0  0  0
   -7.3892  -20.3286   28.3397 H   0  0  0  0  0  0  0  0  0  0  0  0
   -6.5984  -21.1598   27.5735 H   0  0  0  0  0  0  0  0  0  0  0  0
   -4.9690  -18.6026   27.9367 H   0  0  0  0  0  0  0  0  0  0  0  0
   -5.8468  -16.7575   29.6697 H   0  0  0  0  0  0  0  0  0  0  0  0
  -10.8623   -8.1001   33.5476 H   0  0  0  0  0  0  0  0  0  0  0  0
  -10.8690   -8.7144   32.5336 H   0  0  0  0  0  0  0  0  0  0  0  0
   -9.9125   -6.4013   33.9268 H   0  0  0  0  0  0  0  0  0  0  0  0
   -8.6815   -6.4487   34.7019 H   0  0  0  0  0  0  0  0  0  0  0  0
   -7.0027   -6.9846   33.6128 H   0  0  0  0  0  0  0  0  0  0  0  0
   -7.4437   -6.7834   31.9820 H   0  0  0  0  0  0  0  0  0  0  0  0
   -9.1870   -7.2583   31.7412 H   0  0  0  0  0  0  0  0  0  0  0  0
  -10.1890   -7.3070   32.2087 H   0  0  0  0  0  0  0  0  0  0  0  0
  1  2  1  0
  2  3  1  0
  3  4  1  0
  4  5  1  0
  5  6  1  0
  6  7  2  0
  6  8  1  0
  8  9  1  0
  9 10  1  0
 10 11  2  0
 11 12  1  0
 12 13  2  0
 13 14  1  0
 14 15  2  0
 15 16  1  0
 16 17  2  0
 17 18  1  0
  5 19  1  0
 19 20  1  0
 20 21  1  0
 21 22  1  0
 22  5  1  0
 18 10  1  0
 18 14  1  0
  1 23  1  0
  1 24  1  0
  1 25  1  0
  3 26  1  0
  3 27  1  0
  4 28  1  0
  4 29  1  0
  9 30  1  0
  9 31  1  0
 11 32  1  0
 12 33  1  0
 13 34  1  0
 16 35  1  0
 17 36  1  0
 19 37  1  0
 19 38  1  0
 20 39  1  0
 20 40  1  0
 21 41  1  0
 21 42  1  0
 22 43  1  0
 22 44  1  0
M  END
>  <Energy>  (601) 
3355.6182244053484

>  <compound_id>  (601) 
26417

>  <target_id>  (601) 
1

>  <reference_id>  (601) 
7

>  <inspiration_ids>  (601) 
[7, 45]

>  <energy_score>  (601) 
3282.666161595952

>  <distance_score>  (601) 
8.563438098076892

>  <path>  (601) 
/opt/xchem-fragalysis-2/maxwin/BulkDock/SCRATCH/511022/C26417-P7/C26417-P7.minimised.mol

>  <scratch_subdir>  (601) 
/opt/xchem-fragalysis-2/maxwin/BulkDock/SCRATCH/511022/C26417-P7

>  <fragmenstein_runtime>  (601) 
21.1125910282135

>  <fragmenstein_outcome>  (601) 
too moved

>  <fragmenstein_mode>  (601) 
expansion

>  <fragmenstein_error>  (601) 


$$$$
C26417-P45
     RDKit          3D

 44 46  0  0  0  0  0  0  0  0999 V2000
  -14.2902   -9.5114   38.8207 C   0  0  0  0  0  0  0  0  0  0  0  0
  -14.5405  -10.2759   37.6447 O   0  0  0  0  0  0  0  0  0  0  0  0
  -13.5431  -11.2759   37.4220 C   0  0  0  0  0  0  0  0  0  0  0  0
  -13.9504  -12.2856   36.3213 C   0  0  0  0  0  0  0  0  0  0  0  0
  -14.5712  -13.7117   36.6647 C   0  0  0  0  0  0  0  0  0  0  0  0
  -14.3199  -14.7781   35.4898 C   0  0  0  0  0  0  0  0  0  0  0  0
  -14.6893  -14.5133   34.3458 O   0  0  0  0  0  0  0  0  0  0  0  0
  -13.6879  -15.9844   35.7916 O   0  0  0  0  0  0  0  0  0  0  0  0
  -13.7475  -17.0807   34.7591 C   0  0  0  0  0  0  0  0  0  0  0  0
  -12.5794  -18.1313   34.6377 C   0  0  0  0  0  0  0  0  0  0  0  0
  -11.3467  -17.9732   35.1674 C   0  0  0  0  0  0  0  0  0  0  0  0
  -10.2753  -18.9317   34.9031 C   0  0  0  0  0  0  0  0  0  0  0  0
  -10.4567  -20.0205   34.1384 C   0  0  0  0  0  0  0  0  0  0  0  0
  -11.7319  -20.2588   33.5736 C   0  0  0  0  0  0  0  0  0  0  0  0
  -12.1350  -21.2284   32.7753 N   0  0  0  0  0  0  0  0  0  0  0  0
  -13.4579  -20.9746   32.5552 C   0  0  0  0  0  0  0  0  0  0  0  0
  -13.8551  -19.8122   33.1809 C   0  0  0  0  0  0  0  0  0  0  0  0
  -12.7505  -19.3196   33.8442 N   0  0  0  0  0  0  0  0  0  0  0  0
  -16.1018  -13.5097   36.7895 C   0  0  0  0  0  0  0  0  0  0  0  0
  -16.3353  -12.9339   38.1785 C   0  0  0  0  0  0  0  0  0  0  0  0
  -15.2094  -13.5000   39.0333 C   0  0  0  0  0  0  0  0  0  0  0  0
  -14.2427  -14.2178   38.0743 C   0  0  0  0  0  0  0  0  0  0  0  0
  -13.2624   -9.1407   38.8365 H   0  0  0  0  0  0  0  0  0  0  0  0
  -14.9806   -8.6644   38.8365 H   0  0  0  0  0  0  0  0  0  0  0  0
  -14.4716  -10.1272   39.7065 H   0  0  0  0  0  0  0  0  0  0  0  0
  -13.2631  -11.7698   38.3540 H   0  0  0  0  0  0  0  0  0  0  0  0
  -12.6408  -10.7635   37.0817 H   0  0  0  0  0  0  0  0  0  0  0  0
  -14.5999  -11.7861   35.5922 H   0  0  0  0  0  0  0  0  0  0  0  0
  -13.0373  -12.4957   35.7866 H   0  0  0  0  0  0  0  0  0  0  0  0
  -13.8813  -16.6313   33.7699 H   0  0  0  0  0  0  0  0  0  0  0  0
  -14.6600  -17.6311   35.0145 H   0  0  0  0  0  0  0  0  0  0  0  0
  -11.1006  -17.1031   35.7591 H   0  0  0  0  0  0  0  0  0  0  0  0
   -9.2982  -18.7179   35.3274 H   0  0  0  0  0  0  0  0  0  0  0  0
   -9.6473  -20.7115   33.9354 H   0  0  0  0  0  0  0  0  0  0  0  0
  -14.0651  -21.6351   31.9486 H   0  0  0  0  0  0  0  0  0  0  0  0
  -14.8096  -19.3081   33.2119 H   0  0  0  0  0  0  0  0  0  0  0  0
  -16.6147  -14.4777   36.7079 H   0  0  0  0  0  0  0  0  0  0  0  0
  -16.5230  -12.8683   36.0079 H   0  0  0  0  0  0  0  0  0  0  0  0
  -17.3174  -13.2247   38.5660 H   0  0  0  0  0  0  0  0  0  0  0  0
  -16.3158  -11.8428   38.1670 H   0  0  0  0  0  0  0  0  0  0  0  0
  -15.6022  -14.2170   39.7636 H   0  0  0  0  0  0  0  0  0  0  0  0
  -14.7182  -12.7140   39.6130 H   0  0  0  0  0  0  0  0  0  0  0  0
  -14.4183  -15.2983   38.1473 H   0  0  0  0  0  0  0  0  0  0  0  0
  -13.1999  -14.0536   38.3588 H   0  0  0  0  0  0  0  0  0  0  0  0
  1  2  1  0
  2  3  1  0
  3  4  1  0
  4  5  1  0
  5  6  1  0
  6  7  2  0
  6  8  1  0
  8  9  1  0
  9 10  1  0
 10 11  2  0
 11 12  1  0
 12 13  2  0
 13 14  1  0
 14 15  2  0
 15 16  1  0
 16 17  2  0
 17 18  1  0
  5 19  1  0
 19 20  1  0
 20 21  1  0
 21 22  1  0
 22  5  1  0
 18 10  1  0
 18 14  1  0
  1 23  1  0
  1 24  1  0
  1 25  1  0
  3 26  1  0
  3 27  1  0
  4 28  1  0
  4 29  1  0
  9 30  1  0
  9 31  1  0
 11 32  1  0
 12 33  1  0
 13 34  1  0
 16 35  1  0
 17 36  1  0
 19 37  1  0
 19 38  1  0
 20 39  1  0
 20 40  1  0
 21 41  1  0
 21 42  1  0
 22 43  1  0
 22 44  1  0
M  END
>  <Energy>  (602) 
54.863400920011877

>  <compound_id>  (602) 
26417

>  <target_id>  (602) 
1

>  <reference_id>  (602) 
45

>  <inspiration_ids>  (602) 
[7, 45]

>  <energy_score>  (602) 
-18.088661889371906

>  <distance_score>  (602) 
11.691816893919937

>  <path>  (602) 
/opt/xchem-fragalysis-2/maxwin/BulkDock/SCRATCH/511022/C26417-P45/C26417-P45.minimised.mol

>  <scratch_subdir>  (602) 
/opt/xchem-fragalysis-2/maxwin/BulkDock/SCRATCH/511022/C26417-P45

>  <fragmenstein_runtime>  (602) 
18.00823450088501

>  <fragmenstein_outcome>  (602) 
too moved

>  <fragmenstein_mode>  (602) 
expansion

>  <fragmenstein_error>  (602) 


$$$$
C26418-P7
     RDKit          3D

 47 49  0  0  0  0  0  0  0  0999 V2000
  -15.7558   -5.6191   38.0754 C   0  0  0  0  0  0  0  0  0  0  0  0
  -14.5607   -6.2972   37.7138 O   0  0  0  0  0  0  0  0  0  0  0  0
  -14.8079   -7.4066   36.8626 C   0  0  0  0  0  0  0  0  0  0  0  0
  -13.4614   -8.1599   36.3075 C   0  0  0  0  0  0  0  0  0  0  0  0
  -11.7445   -7.1837   35.5490 C   0  0  0  0  0  0  0  0  0  0  0  0
  -11.5402   -9.0273   34.7136 C   0  0  0  0  0  0  0  0  0  0  0  0
  -12.5622  -10.2616   34.9290 N   0  0  0  0  0  0  0  0  0  0  0  0
  -13.6782  -10.7819   34.0612 C   0  0  0  0  0  0  0  0  0  0  0  0
  -14.1234  -10.3576   33.0554 O   0  0  0  0  0  0  0  0  0  0  0  0
  -13.9865  -12.0724   34.8062 N   0  0  0  0  0  0  0  0  0  0  0  0
  -14.8024  -13.1512   34.4630 C   0  0  0  0  0  0  0  0  0  0  0  0
  -14.9052  -14.0977   35.4350 C   0  0  0  0  0  0  0  0  0  0  0  0
  -15.5647  -15.3697   35.2209 C   0  0  0  0  0  0  0  0  0  0  0  0
  -16.0766  -15.6772   34.0257 C   0  0  0  0  0  0  0  0  0  0  0  0
  -15.8698  -14.7967   32.9308 C   0  0  0  0  0  0  0  0  0  0  0  0
  -16.1209  -15.0145   31.6551 N   0  0  0  0  0  0  0  0  0  0  0  0
  -15.6149  -13.9350   31.0019 C   0  0  0  0  0  0  0  0  0  0  0  0
  -15.1429  -13.0081   31.8988 C   0  0  0  0  0  0  0  0  0  0  0  0
  -15.2504  -13.5547   33.1605 N   0  0  0  0  0  0  0  0  0  0  0  0
  -10.2606   -5.9681   36.1915 C   0  0  0  0  0  0  0  0  0  0  0  0
  -10.7545   -4.4581   37.0279 C   0  0  0  0  0  0  0  0  0  0  0  0
  -12.1048   -4.2028   36.5564 C   0  0  0  0  0  0  0  0  0  0  0  0
  -11.8858   -5.2214   35.4668 C   0  0  0  0  0  0  0  0  0  0  0  0
  -16.2409   -5.2015   37.1878 H   0  0  0  0  0  0  0  0  0  0  0  0
  -16.4390   -6.2967   38.5962 H   0  0  0  0  0  0  0  0  0  0  0  0
  -15.4951   -4.7980   38.7483 H   0  0  0  0  0  0  0  0  0  0  0  0
  -15.4598   -7.1081   36.0328 H   0  0  0  0  0  0  0  0  0  0  0  0
  -15.3700   -8.1596   37.4311 H   0  0  0  0  0  0  0  0  0  0  0  0
  -13.9102   -8.7984   35.5457 H   0  0  0  0  0  0  0  0  0  0  0  0
  -13.2135   -8.8109   37.1754 H   0  0  0  0  0  0  0  0  0  0  0  0
  -10.9921   -9.7930   35.3076 H   0  0  0  0  0  0  0  0  0  0  0  0
  -10.9158   -9.0271   33.7728 H   0  0  0  0  0  0  0  0  0  0  0  0
  -12.4960  -10.8222   35.7576 H   0  0  0  0  0  0  0  0  0  0  0  0
  -13.4866  -12.0833   35.6746 H   0  0  0  0  0  0  0  0  0  0  0  0
  -14.5095  -13.9406   36.4349 H   0  0  0  0  0  0  0  0  0  0  0  0
  -15.6942  -16.0321   36.0717 H   0  0  0  0  0  0  0  0  0  0  0  0
  -16.6394  -16.5901   33.8718 H   0  0  0  0  0  0  0  0  0  0  0  0
  -15.6560  -13.8517   29.9231 H   0  0  0  0  0  0  0  0  0  0  0  0
  -14.7499  -12.0237   31.7167 H   0  0  0  0  0  0  0  0  0  0  0  0
   -9.3991   -6.4135   36.6864 H   0  0  0  0  0  0  0  0  0  0  0  0
   -9.5562   -5.7906   35.3833 H   0  0  0  0  0  0  0  0  0  0  0  0
  -10.1606   -3.6152   36.6635 H   0  0  0  0  0  0  0  0  0  0  0  0
  -10.7206   -4.4924   38.1238 H   0  0  0  0  0  0  0  0  0  0  0  0
  -12.1940   -3.1696   36.1874 H   0  0  0  0  0  0  0  0  0  0  0  0
  -12.9876   -4.3183   37.1844 H   0  0  0  0  0  0  0  0  0  0  0  0
  -11.8660   -4.4192   34.7226 H   0  0  0  0  0  0  0  0  0  0  0  0
  -10.9879   -5.0426   34.9554 H   0  0  0  0  0  0  0  0  0  0  0  0
  1  2  1  0
  2  3  1  0
  3  4  1  0
  4  5  1  0
  5  6  1  0
  6  7  1  0
  7  8  1  0
  8  9  2  0
  8 10  1  0
 10 11  1  0
 11 12  2  0
 12 13  1  0
 13 14  2  0
 14 15  1  0
 15 16  2  0
 16 17  1  0
 17 18  2  0
 18 19  1  0
  5 20  1  0
 20 21  1  0
 21 22  1  0
 22 23  1  0
 23  5  1  0
 19 11  1  0
 19 15  1  0
  1 24  1  0
  1 25  1  0
  1 26  1  0
  3 27  1  0
  3 28  1  0
  4 29  1  0
  4 30  1  0
  6 31  1  0
  6 32  1  0
  7 33  1  0
 10 34  1  0
 12 35  1  0
 13 36  1  0
 14 37  1  0
 17 38  1  0
 18 39  1  0
 20 40  1  0
 20 41  1  0
 21 42  1  0
 21 43  1  0
 22 44  1  0
 22 45  1  0
 23 46  1  0
 23 47  1  0
M  END
>  <Energy>  (603) 
578.75163887542681

>  <compound_id>  (603) 
26418

>  <target_id>  (603) 
1

>  <reference_id>  (603) 
7

>  <inspiration_ids>  (603) 
[7, 45]

>  <energy_score>  (603) 
528.2874059665864

>  <distance_score>  (603) 
12.403121912947128

>  <path>  (603) 
/opt/xchem-fragalysis-2/maxwin/BulkDock/SCRATCH/511022/C26418-P7/C26418-P7.minimised.mol

>  <scratch_subdir>  (603) 
/opt/xchem-fragalysis-2/maxwin/BulkDock/SCRATCH/511022/C26418-P7

>  <fragmenstein_runtime>  (603) 
19.1114764213562

>  <fragmenstein_outcome>  (603) 
too moved

>  <fragmenstein_mode>  (603) 
expansion

>  <fragmenstein_error>  (603) 


$$$$
C26418-P45
     RDKit          3D

 47 49  0  0  0  0  0  0  0  0999 V2000
  -14.4554  -11.5091   29.8867 C   0  0  0  0  0  0  0  0  0  0  0  0
  -13.8170  -12.7295   29.4957 O   0  0  0  0  0  0  0  0  0  0  0  0
  -13.5103  -12.8091   28.0847 C   0  0  0  0  0  0  0  0  0  0  0  0
  -12.3103  -13.8186   27.7246 C   0  0  0  0  0  0  0  0  0  0  0  0
  -11.4881  -13.7549   26.3188 C   0  0  0  0  0  0  0  0  0  0  0  0
   -9.9073  -14.6324   26.2806 C   0  0  0  0  0  0  0  0  0  0  0  0
   -9.6918  -16.0743   26.5135 N   0  0  0  0  0  0  0  0  0  0  0  0
   -8.4951  -16.8928   27.4522 C   0  0  0  0  0  0  0  0  0  0  0  0
   -7.5643  -16.4848   28.0282 O   0  0  0  0  0  0  0  0  0  0  0  0
   -9.1081  -18.3313   27.3863 N   0  0  0  0  0  0  0  0  0  0  0  0
   -8.7111  -19.8872   28.2494 C   0  0  0  0  0  0  0  0  0  0  0  0
   -9.9964  -21.0057   28.5733 C   0  0  0  0  0  0  0  0  0  0  0  0
  -10.4190  -22.3863   28.4005 C   0  0  0  0  0  0  0  0  0  0  0  0
   -9.5541  -23.3459   28.1418 C   0  0  0  0  0  0  0  0  0  0  0  0
   -8.2125  -22.9486   27.9715 C   0  0  0  0  0  0  0  0  0  0  0  0
   -7.2611  -23.8492   27.9045 N   0  0  0  0  0  0  0  0  0  0  0  0
   -6.1431  -23.1747   27.7074 C   0  0  0  0  0  0  0  0  0  0  0  0
   -6.4096  -21.8436   27.6167 C   0  0  0  0  0  0  0  0  0  0  0  0
   -7.7808  -21.4221   27.7258 N   0  0  0  0  0  0  0  0  0  0  0  0
  -12.6331  -13.9934   25.2630 C   0  0  0  0  0  0  0  0  0  0  0  0
  -13.3096  -12.6106   24.9676 C   0  0  0  0  0  0  0  0  0  0  0  0
  -12.3002  -11.5473   25.3452 C   0  0  0  0  0  0  0  0  0  0  0  0
  -11.1019  -12.4202   25.5874 C   0  0  0  0  0  0  0  0  0  0  0  0
  -14.6967  -11.5720   30.9505 H   0  0  0  0  0  0  0  0  0  0  0  0
  -13.7804  -10.6644   29.7242 H   0  0  0  0  0  0  0  0  0  0  0  0
  -15.3794  -11.3719   29.3180 H   0  0  0  0  0  0  0  0  0  0  0  0
  -14.4219  -13.1567   27.5888 H   0  0  0  0  0  0  0  0  0  0  0  0
  -13.2962  -11.8021   27.7425 H   0  0  0  0  0  0  0  0  0  0  0  0
  -11.6152  -13.9766   28.5420 H   0  0  0  0  0  0  0  0  0  0  0  0
  -12.8082  -14.7967   27.7436 H   0  0  0  0  0  0  0  0  0  0  0  0
   -9.7337  -14.6866   25.2239 H   0  0  0  0  0  0  0  0  0  0  0  0
   -9.1890  -14.0736   26.8738 H   0  0  0  0  0  0  0  0  0  0  0  0
  -10.3073  -16.7225   26.0887 H   0  0  0  0  0  0  0  0  0  0  0  0
   -9.8075  -18.3406   26.7745 H   0  0  0  0  0  0  0  0  0  0  0  0
  -10.6743  -20.6987   29.3885 H   0  0  0  0  0  0  0  0  0  0  0  0
  -11.4703  -22.6167   28.5486 H   0  0  0  0  0  0  0  0  0  0  0  0
   -9.8263  -24.3909   28.0600 H   0  0  0  0  0  0  0  0  0  0  0  0
   -5.1839  -23.6694   27.6352 H   0  0  0  0  0  0  0  0  0  0  0  0
   -5.7130  -21.0888   27.3696 H   0  0  0  0  0  0  0  0  0  0  0  0
  -13.4468  -14.6458   25.5856 H   0  0  0  0  0  0  0  0  0  0  0  0
  -12.2200  -14.4198   24.3394 H   0  0  0  0  0  0  0  0  0  0  0  0
  -13.5603  -12.5554   23.9017 H   0  0  0  0  0  0  0  0  0  0  0  0
  -14.2499  -12.4826   25.5094 H   0  0  0  0  0  0  0  0  0  0  0  0
  -12.5770  -10.9371   26.2015 H   0  0  0  0  0  0  0  0  0  0  0  0
  -12.1297  -10.8567   24.5118 H   0  0  0  0  0  0  0  0  0  0  0  0
  -10.2165  -11.9120   25.9007 H   0  0  0  0  0  0  0  0  0  0  0  0
  -10.7984  -12.6927   24.5649 H   0  0  0  0  0  0  0  0  0  0  0  0
  1  2  1  0
  2  3  1  0
  3  4  1  0
  4  5  1  0
  5  6  1  0
  6  7  1  0
  7  8  1  0
  8  9  2  0
  8 10  1  0
 10 11  1  0
 11 12  2  0
 12 13  1  0
 13 14  2  0
 14 15  1  0
 15 16  2  0
 16 17  1  0
 17 18  2  0
 18 19  1  0
  5 20  1  0
 20 21  1  0
 21 22  1  0
 22 23  1  0
 23  5  1  0
 19 11  1  0
 19 15  1  0
  1 24  1  0
  1 25  1  0
  1 26  1  0
  3 27  1  0
  3 28  1  0
  4 29  1  0
  4 30  1  0
  6 31  1  0
  6 32  1  0
  7 33  1  0
 10 34  1  0
 12 35  1  0
 13 36  1  0
 14 37  1  0
 17 38  1  0
 18 39  1  0
 20 40  1  0
 20 41  1  0
 21 42  1  0
 21 43  1  0
 22 44  1  0
 22 45  1  0
 23 46  1  0
 23 47  1  0
M  END
>  <Energy>  (604) 
415.93582460464654

>  <compound_id>  (604) 
26418

>  <target_id>  (604) 
1

>  <reference_id>  (604) 
45

>  <inspiration_ids>  (604) 
[7, 45]

>  <energy_score>  (604) 
365.4715916957964

>  <distance_score>  (604) 
11.841427983262182

>  <path>  (604) 
/opt/xchem-fragalysis-2/maxwin/BulkDock/SCRATCH/511022/C26418-P45/C26418-P45.minimised.mol

>  <scratch_subdir>  (604) 
/opt/xchem-fragalysis-2/maxwin/BulkDock/SCRATCH/511022/C26418-P45

>  <fragmenstein_runtime>  (604) 
21.792591094970703

>  <fragmenstein_outcome>  (604) 
too moved

>  <fragmenstein_mode>  (604) 
expansion

>  <fragmenstein_error>  (604) 


$$$$
C76527-P7
     RDKit          3D

 40 43  0  0  0  0  0  0  0  0999 V2000
  -10.4090   -9.9835   39.9037 C   0  0  0  0  0  0  0  0  0  0  0  0
   -9.4627  -10.2944   38.8786 O   0  0  0  0  0  0  0  0  0  0  0  0
   -9.9554  -11.2224   37.8918 C   0  0  0  0  0  0  0  0  0  0  0  0
   -9.9155  -10.6720   36.2343 C   0  0  0  0  0  0  0  0  0  0  0  0
   -8.8937  -10.4363   34.8472 C   0  0  0  0  0  0  0  0  0  0  0  0
   -8.7459  -12.1430   33.5302 C   0  0  0  0  0  0  0  0  0  0  0  0
   -7.7116  -13.3294   32.9385 N   0  0  0  0  0  0  0  0  0  0  0  0
   -8.1015  -14.5197   32.3348 O   0  0  0  0  0  0  0  0  0  0  0  0
   -9.3770  -14.8372   32.6941 C   0  0  0  0  0  0  0  0  0  0  0  0
   -9.5294  -16.1720   33.6219 C   0  0  0  0  0  0  0  0  0  0  0  0
  -10.6042  -16.3807   34.4153 C   0  0  0  0  0  0  0  0  0  0  0  0
  -10.5861  -17.8570   35.4015 S   0  0  0  0  0  0  0  0  0  0  0  0
   -9.0088  -18.1626   34.7960 C   0  0  0  0  0  0  0  0  0  0  0  0
   -8.2170  -19.1887   34.9170 N   0  0  0  0  0  0  0  0  0  0  0  0
   -7.1540  -18.8284   34.1409 C   0  0  0  0  0  0  0  0  0  0  0  0
   -7.3106  -17.5540   33.6058 C   0  0  0  0  0  0  0  0  0  0  0  0
   -8.5670  -17.1592   33.9630 N   0  0  0  0  0  0  0  0  0  0  0  0
   -9.7849  -13.4544   33.0273 N   0  0  0  0  0  0  0  0  0  0  0  0
   -9.3087   -8.3485   33.9349 C   0  0  0  0  0  0  0  0  0  0  0  0
   -8.4286   -6.7580   35.2993 C   0  0  0  0  0  0  0  0  0  0  0  0
   -7.3625   -8.1367   36.5790 C   0  0  0  0  0  0  0  0  0  0  0  0
   -7.5247  -10.2239   36.5026 C   0  0  0  0  0  0  0  0  0  0  0  0
   -9.9631   -9.2350   40.5637 H   0  0  0  0  0  0  0  0  0  0  0  0
  -10.6268  -10.8827   40.4876 H   0  0  0  0  0  0  0  0  0  0  0  0
  -11.3345   -9.5791   39.4846 H   0  0  0  0  0  0  0  0  0  0  0  0
  -11.0089  -11.4102   38.1152 H   0  0  0  0  0  0  0  0  0  0  0  0
   -9.3957  -12.1498   38.0403 H   0  0  0  0  0  0  0  0  0  0  0  0
   -9.3508   -9.9083   36.6644 H   0  0  0  0  0  0  0  0  0  0  0  0
  -10.9621  -10.5312   35.9295 H   0  0  0  0  0  0  0  0  0  0  0  0
  -11.5098  -15.7953   34.3375 H   0  0  0  0  0  0  0  0  0  0  0  0
   -6.3129  -19.4960   33.9994 H   0  0  0  0  0  0  0  0  0  0  0  0
   -6.6585  -16.9706   32.9810 H   0  0  0  0  0  0  0  0  0  0  0  0
  -10.3900   -8.3380   33.6537 H   0  0  0  0  0  0  0  0  0  0  0  0
   -8.9237   -7.8094   33.0442 H   0  0  0  0  0  0  0  0  0  0  0  0
   -7.5968   -6.2358   34.7818 H   0  0  0  0  0  0  0  0  0  0  0  0
   -9.1280   -6.1164   35.8564 H   0  0  0  0  0  0  0  0  0  0  0  0
   -6.2804   -7.9407   36.5028 H   0  0  0  0  0  0  0  0  0  0  0  0
   -7.7735   -8.0278   37.6028 H   0  0  0  0  0  0  0  0  0  0  0  0
   -6.5492  -10.3644   36.0695 H   0  0  0  0  0  0  0  0  0  0  0  0
   -7.6958  -10.6097   37.4993 H   0  0  0  0  0  0  0  0  0  0  0  0
  1  2  1  0
  2  3  1  0
  3  4  1  0
  4  5  1  0
  5  6  1  0
  6  7  2  0
  7  8  1  0
  8  9  1  0
  9 10  1  0
 10 11  2  0
 11 12  1  0
 12 13  1  0
 13 14  2  0
 14 15  1  0
 15 16  2  0
 16 17  1  0
  9 18  2  0
  5 19  1  0
 19 20  1  0
 20 21  1  0
 21 22  1  0
 22  5  1  0
 18  6  1  0
 17 10  1  0
 17 13  1  0
  1 23  1  0
  1 24  1  0
  1 25  1  0
  3 26  1  0
  3 27  1  0
  4 28  1  0
  4 29  1  0
 11 30  1  0
 15 31  1  0
 16 32  1  0
 19 33  1  0
 19 34  1  0
 20 35  1  0
 20 36  1  0
 21 37  1  0
 21 38  1  0
 22 39  1  0
 22 40  1  0
M  END
>  <Energy>  (605) 
1132.8073517589339

>  <compound_id>  (605) 
76527

>  <target_id>  (605) 
1

>  <reference_id>  (605) 
7

>  <inspiration_ids>  (605) 
[7, 45]

>  <energy_score>  (605) 
1036.8427742420063

>  <distance_score>  (605) 
10.823250306991062

>  <path>  (605) 
/opt/xchem-fragalysis-2/maxwin/BulkDock/SCRATCH/511022/C76527-P7/C76527-P7.minimised.mol

>  <scratch_subdir>  (605) 
/opt/xchem-fragalysis-2/maxwin/BulkDock/SCRATCH/511022/C76527-P7

>  <fragmenstein_runtime>  (605) 
16.39616322517395

>  <fragmenstein_outcome>  (605) 
too moved

>  <fragmenstein_mode>  (605) 
expansion

>  <fragmenstein_error>  (605) 


$$$$
C76527-P45
     RDKit          3D

 40 43  0  0  0  0  0  0  0  0999 V2000
   -5.3616   -2.7003   34.2981 C   0  0  0  0  0  0  0  0  0  0  0  0
   -5.0316   -4.0729   34.5640 O   0  0  0  0  0  0  0  0  0  0  0  0
   -4.2051   -4.5765   33.5233 C   0  0  0  0  0  0  0  0  0  0  0  0
   -3.5559   -5.9818   33.7160 C   0  0  0  0  0  0  0  0  0  0  0  0
   -3.0529   -6.6258   32.3356 C   0  0  0  0  0  0  0  0  0  0  0  0
   -2.1329   -7.9163   32.4136 C   0  0  0  0  0  0  0  0  0  0  0  0
   -1.6628   -8.4581   33.5389 N   0  0  0  0  0  0  0  0  0  0  0  0
   -0.8465   -9.5387   33.1080 O   0  0  0  0  0  0  0  0  0  0  0  0
   -0.8861   -9.6360   31.7102 C   0  0  0  0  0  0  0  0  0  0  0  0
   -0.3645  -10.7994   30.9137 C   0  0  0  0  0  0  0  0  0  0  0  0
   -0.4496  -10.8215   29.5620 C   0  0  0  0  0  0  0  0  0  0  0  0
   -0.1387  -12.3905   28.7923 S   0  0  0  0  0  0  0  0  0  0  0  0
    0.2154  -13.0314   30.3521 C   0  0  0  0  0  0  0  0  0  0  0  0
    0.4756  -14.2352   30.7840 N   0  0  0  0  0  0  0  0  0  0  0  0
    0.6137  -14.0540   32.1407 C   0  0  0  0  0  0  0  0  0  0  0  0
    0.3947  -12.7310   32.5042 C   0  0  0  0  0  0  0  0  0  0  0  0
    0.0875  -12.0748   31.3377 N   0  0  0  0  0  0  0  0  0  0  0  0
   -1.6385   -8.6059   31.2711 N   0  0  0  0  0  0  0  0  0  0  0  0
   -4.3531   -6.9066   31.5277 C   0  0  0  0  0  0  0  0  0  0  0  0
   -4.3286   -6.0364   30.2739 C   0  0  0  0  0  0  0  0  0  0  0  0
   -3.3254   -4.9308   30.5353 C   0  0  0  0  0  0  0  0  0  0  0  0
   -2.2974   -5.5750   31.4608 C   0  0  0  0  0  0  0  0  0  0  0  0
   -5.6603   -2.5605   33.2534 H   0  0  0  0  0  0  0  0  0  0  0  0
   -4.4903   -2.0738   34.5133 H   0  0  0  0  0  0  0  0  0  0  0  0
   -6.1867   -2.3671   34.9244 H   0  0  0  0  0  0  0  0  0  0  0  0
   -4.8429   -4.5923   32.6463 H   0  0  0  0  0  0  0  0  0  0  0  0
   -3.3955   -3.8572   33.3501 H   0  0  0  0  0  0  0  0  0  0  0  0
   -2.7063   -5.8777   34.4020 H   0  0  0  0  0  0  0  0  0  0  0  0
   -4.2616   -6.6587   34.2138 H   0  0  0  0  0  0  0  0  0  0  0  0
   -0.7139   -9.9818   28.9422 H   0  0  0  0  0  0  0  0  0  0  0  0
    0.8571  -14.8834   32.7942 H   0  0  0  0  0  0  0  0  0  0  0  0
    0.4018  -12.2368   33.4655 H   0  0  0  0  0  0  0  0  0  0  0  0
   -4.4575   -7.9600   31.2753 H   0  0  0  0  0  0  0  0  0  0  0  0
   -5.2526   -6.6710   32.1051 H   0  0  0  0  0  0  0  0  0  0  0  0
   -5.3168   -5.6436   30.0186 H   0  0  0  0  0  0  0  0  0  0  0  0
   -3.9922   -6.6314   29.4188 H   0  0  0  0  0  0  0  0  0  0  0  0
   -3.7931   -4.0492   30.9772 H   0  0  0  0  0  0  0  0  0  0  0  0
   -2.8587   -4.5914   29.6041 H   0  0  0  0  0  0  0  0  0  0  0  0
   -1.5376   -6.0566   30.8316 H   0  0  0  0  0  0  0  0  0  0  0  0
   -1.7611   -4.8330   32.0614 H   0  0  0  0  0  0  0  0  0  0  0  0
  1  2  1  0
  2  3  1  0
  3  4  1  0
  4  5  1  0
  5  6  1  0
  6  7  2  0
  7  8  1  0
  8  9  1  0
  9 10  1  0
 10 11  2  0
 11 12  1  0
 12 13  1  0
 13 14  2  0
 14 15  1  0
 15 16  2  0
 16 17  1  0
  9 18  2  0
  5 19  1  0
 19 20  1  0
 20 21  1  0
 21 22  1  0
 22  5  1  0
 18  6  1  0
 17 10  1  0
 17 13  1  0
  1 23  1  0
  1 24  1  0
  1 25  1  0
  3 26  1  0
  3 27  1  0
  4 28  1  0
  4 29  1  0
 11 30  1  0
 15 31  1  0
 16 32  1  0
 19 33  1  0
 19 34  1  0
 20 35  1  0
 20 36  1  0
 21 37  1  0
 21 38  1  0
 22 39  1  0
 22 40  1  0
M  END
>  <Energy>  (606) 
71.622955433401387

>  <compound_id>  (606) 
76527

>  <target_id>  (606) 
1

>  <reference_id>  (606) 
45

>  <inspiration_ids>  (606) 
[7, 45]

>  <energy_score>  (606) 
-24.341622083528364

>  <distance_score>  (606) 
13.931865604029078

>  <path>  (606) 
/opt/xchem-fragalysis-2/maxwin/BulkDock/SCRATCH/511022/C76527-P45/C76527-P45.minimised.mol

>  <scratch_subdir>  (606) 
/opt/xchem-fragalysis-2/maxwin/BulkDock/SCRATCH/511022/C76527-P45

>  <fragmenstein_runtime>  (606) 
9.445166826248169

>  <fragmenstein_outcome>  (606) 
too moved

>  <fragmenstein_mode>  (606) 
expansion

>  <fragmenstein_error>  (606) 


$$$$
C26388-P7
     RDKit          3D

 45 47  0  0  0  0  0  0  0  0999 V2000
  -14.5469   -8.8419   38.0023 C   0  0  0  0  0  0  0  0  0  0  0  0
  -13.9303   -9.1084   36.7482 O   0  0  0  0  0  0  0  0  0  0  0  0
  -13.1819  -10.3266   36.7445 C   0  0  0  0  0  0  0  0  0  0  0  0
  -12.3973  -10.6600   35.4023 C   0  0  0  0  0  0  0  0  0  0  0  0
  -10.8806   -9.9617   34.9668 C   0  0  0  0  0  0  0  0  0  0  0  0
   -9.0385  -11.0454   35.0060 C   0  0  0  0  0  0  0  0  0  0  0  0
   -8.3134  -10.8838   35.9966 O   0  0  0  0  0  0  0  0  0  0  0  0
   -8.8675  -12.2696   33.4941 N   0  0  0  0  0  0  0  0  0  0  0  0
   -7.6235  -13.7228   33.1017 C   0  0  0  0  0  0  0  0  0  0  0  0
   -7.5042  -15.6753   33.6167 C   0  0  0  0  0  0  0  0  0  0  0  0
   -8.6323  -16.4727   33.8182 C   0  0  0  0  0  0  0  0  0  0  0  0
   -8.7108  -17.8453   34.3140 C   0  0  0  0  0  0  0  0  0  0  0  0
   -7.5984  -18.5720   34.3566 C   0  0  0  0  0  0  0  0  0  0  0  0
   -6.4099  -17.9304   34.0979 N   0  0  0  0  0  0  0  0  0  0  0  0
   -5.1621  -18.4978   34.1210 C   0  0  0  0  0  0  0  0  0  0  0  0
   -4.2960  -17.4429   34.0888 C   0  0  0  0  0  0  0  0  0  0  0  0
   -4.9781  -16.2604   33.9871 N   0  0  0  0  0  0  0  0  0  0  0  0
   -6.2674  -16.5393   33.8797 C   0  0  0  0  0  0  0  0  0  0  0  0
  -11.6360   -8.2645   34.8354 C   0  0  0  0  0  0  0  0  0  0  0  0
  -11.0634   -6.6119   34.2887 C   0  0  0  0  0  0  0  0  0  0  0  0
   -9.9893   -7.5084   33.3779 C   0  0  0  0  0  0  0  0  0  0  0  0
  -10.4783   -9.0972   33.4117 C   0  0  0  0  0  0  0  0  0  0  0  0
  -15.0885   -7.8955   37.9262 H   0  0  0  0  0  0  0  0  0  0  0  0
  -13.7919   -8.7540   38.7891 H   0  0  0  0  0  0  0  0  0  0  0  0
  -15.2579   -9.6352   38.2514 H   0  0  0  0  0  0  0  0  0  0  0  0
  -13.9133  -11.1312   36.8930 H   0  0  0  0  0  0  0  0  0  0  0  0
  -12.4958  -10.3625   37.5985 H   0  0  0  0  0  0  0  0  0  0  0  0
  -13.0903  -10.5652   34.5559 H   0  0  0  0  0  0  0  0  0  0  0  0
  -12.2869  -11.7048   35.5664 H   0  0  0  0  0  0  0  0  0  0  0  0
   -9.5542  -12.1050   32.8207 H   0  0  0  0  0  0  0  0  0  0  0  0
   -8.3754  -14.2841   32.4473 H   0  0  0  0  0  0  0  0  0  0  0  0
   -7.1359  -13.3744   32.1662 H   0  0  0  0  0  0  0  0  0  0  0  0
   -9.6270  -16.0664   33.6315 H   0  0  0  0  0  0  0  0  0  0  0  0
   -9.6873  -18.2652   34.5284 H   0  0  0  0  0  0  0  0  0  0  0  0
   -7.5749  -19.6228   34.6086 H   0  0  0  0  0  0  0  0  0  0  0  0
   -5.0157  -19.5638   34.2026 H   0  0  0  0  0  0  0  0  0  0  0  0
   -3.2155  -17.4623   34.1340 H   0  0  0  0  0  0  0  0  0  0  0  0
  -12.7033   -8.6331   34.9892 H   0  0  0  0  0  0  0  0  0  0  0  0
  -11.8933   -7.5611   35.5993 H   0  0  0  0  0  0  0  0  0  0  0  0
  -11.3480   -5.9950   35.2030 H   0  0  0  0  0  0  0  0  0  0  0  0
  -10.2220   -5.9791   34.7750 H   0  0  0  0  0  0  0  0  0  0  0  0
  -10.0116   -7.2574   32.3394 H   0  0  0  0  0  0  0  0  0  0  0  0
   -8.9487   -7.2207   33.6357 H   0  0  0  0  0  0  0  0  0  0  0  0
  -11.3603   -9.6677   33.2811 H   0  0  0  0  0  0  0  0  0  0  0  0
  -10.9885   -8.8122   32.5125 H   0  0  0  0  0  0  0  0  0  0  0  0
  1  2  1  0
  2  3  1  0
  3  4  1  0
  4  5  1  0
  5  6  1  0
  6  7  2  0
  6  8  1  0
  8  9  1  0
  9 10  1  0
 10 11  2  0
 11 12  1  0
 12 13  2  0
 13 14  1  0
 14 15  1  0
 15 16  2  0
 16 17  1  0
 17 18  2  0
  5 19  1  0
 19 20  1  0
 20 21  1  0
 21 22  1  0
 22  5  1  0
 18 10  1  0
 18 14  1  0
  1 23  1  0
  1 24  1  0
  1 25  1  0
  3 26  1  0
  3 27  1  0
  4 28  1  0
  4 29  1  0
  8 30  1  0
  9 31  1  0
  9 32  1  0
 11 33  1  0
 12 34  1  0
 13 35  1  0
 15 36  1  0
 16 37  1  0
 19 38  1  0
 19 39  1  0
 20 40  1  0
 20 41  1  0
 21 42  1  0
 21 43  1  0
 22 44  1  0
 22 45  1  0
M  END
>  <Energy>  (607) 
793.54278829813688

>  <compound_id>  (607) 
26388

>  <target_id>  (607) 
1

>  <reference_id>  (607) 
7

>  <inspiration_ids>  (607) 
[7, 45]

>  <energy_score>  (607) 
744.7853417204516

>  <distance_score>  (607) 
10.307372674921112

>  <path>  (607) 
/opt/xchem-fragalysis-2/maxwin/BulkDock/SCRATCH/511022/C26388-P7/C26388-P7.minimised.mol

>  <scratch_subdir>  (607) 
/opt/xchem-fragalysis-2/maxwin/BulkDock/SCRATCH/511022/C26388-P7

>  <fragmenstein_runtime>  (607) 
13.489766359329224

>  <fragmenstein_outcome>  (607) 
too moved

>  <fragmenstein_mode>  (607) 
expansion

>  <fragmenstein_error>  (607) 


$$$$
C26388-P45
     RDKit          3D

 45 47  0  0  0  0  0  0  0  0999 V2000
  -12.2158   -3.7245   30.0725 C   0  0  0  0  0  0  0  0  0  0  0  0
  -13.0580   -3.9514   28.9733 O   0  0  0  0  0  0  0  0  0  0  0  0
  -13.5565   -5.2638   28.8459 C   0  0  0  0  0  0  0  0  0  0  0  0
  -12.5523   -6.4070   28.7468 C   0  0  0  0  0  0  0  0  0  0  0  0
  -11.4509   -6.5090   27.6902 C   0  0  0  0  0  0  0  0  0  0  0  0
  -10.7771   -7.9711   27.6736 C   0  0  0  0  0  0  0  0  0  0  0  0
  -10.8367   -8.5488   26.6219 O   0  0  0  0  0  0  0  0  0  0  0  0
  -10.1045   -8.3328   28.9220 N   0  0  0  0  0  0  0  0  0  0  0  0
   -9.2057   -9.4685   29.2469 C   0  0  0  0  0  0  0  0  0  0  0  0
   -9.4032  -11.0972   30.2085 C   0  0  0  0  0  0  0  0  0  0  0  0
   -9.6159  -11.7929   31.9693 C   0  0  0  0  0  0  0  0  0  0  0  0
   -9.5180  -13.9728   31.6550 C   0  0  0  0  0  0  0  0  0  0  0  0
  -10.5621  -14.4221   30.1932 C   0  0  0  0  0  0  0  0  0  0  0  0
  -10.1701  -13.9896   28.9442 N   0  0  0  0  0  0  0  0  0  0  0  0
  -10.3672  -14.0118   27.5811 C   0  0  0  0  0  0  0  0  0  0  0  0
   -8.9646  -14.1513   27.2417 C   0  0  0  0  0  0  0  0  0  0  0  0
   -8.1729  -13.6779   28.2245 N   0  0  0  0  0  0  0  0  0  0  0  0
   -9.1273  -13.0718   29.0867 C   0  0  0  0  0  0  0  0  0  0  0  0
  -12.0289   -6.1318   26.3051 C   0  0  0  0  0  0  0  0  0  0  0  0
  -11.8880   -4.6185   26.1605 C   0  0  0  0  0  0  0  0  0  0  0  0
  -10.6708   -4.2420   26.9802 C   0  0  0  0  0  0  0  0  0  0  0  0
  -10.2982   -5.4908   27.7709 C   0  0  0  0  0  0  0  0  0  0  0  0
  -12.2990   -2.6901   30.3550 H   0  0  0  0  0  0  0  0  0  0  0  0
  -11.1824   -3.8237   29.7647 H   0  0  0  0  0  0  0  0  0  0  0  0
  -12.4821   -4.3551   30.9169 H   0  0  0  0  0  0  0  0  0  0  0  0
  -14.2022   -5.2714   27.9608 H   0  0  0  0  0  0  0  0  0  0  0  0
  -14.2241   -5.4801   29.6805 H   0  0  0  0  0  0  0  0  0  0  0  0
  -13.1901   -7.2691   28.5356 H   0  0  0  0  0  0  0  0  0  0  0  0
  -12.1109   -6.5514   29.7212 H   0  0  0  0  0  0  0  0  0  0  0  0
  -10.1956   -7.5726   29.5782 H   0  0  0  0  0  0  0  0  0  0  0  0
   -8.1568   -9.1662   29.3486 H   0  0  0  0  0  0  0  0  0  0  0  0
   -9.0421   -9.6052   28.1734 H   0  0  0  0  0  0  0  0  0  0  0  0
   -8.8192  -11.3587   32.6137 H   0  0  0  0  0  0  0  0  0  0  0  0
   -9.5463  -14.5280   32.6126 H   0  0  0  0  0  0  0  0  0  0  0  0
  -11.4382  -15.1057   30.2964 H   0  0  0  0  0  0  0  0  0  0  0  0
  -11.2574  -14.4645   27.1899 H   0  0  0  0  0  0  0  0  0  0  0  0
   -8.5208  -14.7624   26.4629 H   0  0  0  0  0  0  0  0  0  0  0  0
  -11.4519   -6.5931   25.4935 H   0  0  0  0  0  0  0  0  0  0  0  0
  -13.0648   -6.4602   26.1675 H   0  0  0  0  0  0  0  0  0  0  0  0
  -11.7620   -4.3375   25.1090 H   0  0  0  0  0  0  0  0  0  0  0  0
  -12.7809   -4.0942   26.5080 H   0  0  0  0  0  0  0  0  0  0  0  0
   -9.8393   -3.9550   26.3258 H   0  0  0  0  0  0  0  0  0  0  0  0
  -10.8710   -3.3758   27.6148 H   0  0  0  0  0  0  0  0  0  0  0  0
  -10.0386   -5.2369   28.7855 H   0  0  0  0  0  0  0  0  0  0  0  0
   -9.3845   -5.9127   27.3297 H   0  0  0  0  0  0  0  0  0  0  0  0
  1  2  1  0
  2  3  1  0
  3  4  1  0
  4  5  1  0
  5  6  1  0
  6  7  2  0
  6  8  1  0
  8  9  1  0
  9 10  1  0
 10 11  2  0
 11 12  1  0
 12 13  2  0
 13 14  1  0
 14 15  1  0
 15 16  2  0
 16 17  1  0
 17 18  2  0
  5 19  1  0
 19 20  1  0
 20 21  1  0
 21 22  1  0
 22  5  1  0
 18 10  1  0
 18 14  1  0
  1 23  1  0
  1 24  1  0
  1 25  1  0
  3 26  1  0
  3 27  1  0
  4 28  1  0
  4 29  1  0
  8 30  1  0
  9 31  1  0
  9 32  1  0
 11 33  1  0
 12 34  1  0
 13 35  1  0
 15 36  1  0
 16 37  1  0
 19 38  1  0
 19 39  1  0
 20 40  1  0
 20 41  1  0
 21 42  1  0
 21 43  1  0
 22 44  1  0
 22 45  1  0
M  END
>  <Energy>  (608) 
997.97462096579579

>  <compound_id>  (608) 
26388

>  <target_id>  (608) 
1

>  <reference_id>  (608) 
45

>  <inspiration_ids>  (608) 
[7, 45]

>  <energy_score>  (608) 
949.2171743880979

>  <distance_score>  (608) 
12.820090663155174

>  <path>  (608) 
/opt/xchem-fragalysis-2/maxwin/BulkDock/SCRATCH/511022/C26388-P45/C26388-P45.minimised.mol

>  <scratch_subdir>  (608) 
/opt/xchem-fragalysis-2/maxwin/BulkDock/SCRATCH/511022/C26388-P45

>  <fragmenstein_runtime>  (608) 
17.85890507698059

>  <fragmenstein_outcome>  (608) 
too moved

>  <fragmenstein_mode>  (608) 
expansion

>  <fragmenstein_error>  (608) 


$$$$
C76534-P7
     RDKit          3D

 34 37  0  0  0  0  0  0  0  0999 V2000
  -10.6502  -13.2864   26.1847 C   0  0  0  0  0  0  0  0  0  0  0  0
  -10.1162  -14.4625   26.7354 O   0  0  0  0  0  0  0  0  0  0  0  0
   -8.6906  -14.8661   26.5818 C   0  0  0  0  0  0  0  0  0  0  0  0
   -7.9024  -13.9239   27.4396 C   0  0  0  0  0  0  0  0  0  0  0  0
   -8.5786  -16.3642   27.1268 C   0  0  0  0  0  0  0  0  0  0  0  0
   -9.5998  -17.1024   26.7940 N   0  0  0  0  0  0  0  0  0  0  0  0
   -9.3503  -18.3189   27.4244 O   0  0  0  0  0  0  0  0  0  0  0  0
   -8.2149  -18.7025   28.0318 C   0  0  0  0  0  0  0  0  0  0  0  0
   -7.2679  -20.3171   27.4790 C   0  0  0  0  0  0  0  0  0  0  0  0
   -5.9387  -20.2441   26.9878 C   0  0  0  0  0  0  0  0  0  0  0  0
   -5.2454  -21.5966   26.3975 N   0  0  0  0  0  0  0  0  0  0  0  0
   -4.9966  -21.6434   24.8741 C   0  0  0  0  0  0  0  0  0  0  0  0
   -5.6059  -23.1443   24.4401 C   0  0  0  0  0  0  0  0  0  0  0  0
   -6.1514  -23.5865   25.6200 N   0  0  0  0  0  0  0  0  0  0  0  0
   -5.9893  -22.7866   26.6807 C   0  0  0  0  0  0  0  0  0  0  0  0
   -7.4775  -22.3938   27.5988 S   0  0  0  0  0  0  0  0  0  0  0  0
   -7.7240  -17.3166   28.0328 N   0  0  0  0  0  0  0  0  0  0  0  0
   -8.2220  -14.8112   25.0930 C   0  0  0  0  0  0  0  0  0  0  0  0
   -9.1490  -15.1006   23.9304 C   0  0  0  0  0  0  0  0  0  0  0  0
   -8.4825  -13.7558   24.0360 C   0  0  0  0  0  0  0  0  0  0  0  0
  -11.4652  -12.9307   26.8145 H   0  0  0  0  0  0  0  0  0  0  0  0
   -9.9024  -12.5138   26.0399 H   0  0  0  0  0  0  0  0  0  0  0  0
  -11.1136  -13.5124   25.2209 H   0  0  0  0  0  0  0  0  0  0  0  0
   -8.4862  -13.8058   28.3383 H   0  0  0  0  0  0  0  0  0  0  0  0
   -6.9348  -14.2476   27.7986 H   0  0  0  0  0  0  0  0  0  0  0  0
   -7.7372  -12.9980   26.8883 H   0  0  0  0  0  0  0  0  0  0  0  0
   -5.5837  -19.3007   26.8711 H   0  0  0  0  0  0  0  0  0  0  0  0
   -4.5962  -20.7669   24.3519 H   0  0  0  0  0  0  0  0  0  0  0  0
   -5.7542  -23.6292   23.4783 H   0  0  0  0  0  0  0  0  0  0  0  0
   -7.2380  -15.2529   24.9946 H   0  0  0  0  0  0  0  0  0  0  0  0
   -8.7950  -15.7841   23.1660 H   0  0  0  0  0  0  0  0  0  0  0  0
  -10.2103  -15.1879   24.1219 H   0  0  0  0  0  0  0  0  0  0  0  0
   -7.6748  -13.5433   23.3400 H   0  0  0  0  0  0  0  0  0  0  0  0
   -9.0973  -12.8891   24.2085 H   0  0  0  0  0  0  0  0  0  0  0  0
  1  2  1  0
  2  3  1  0
  3  4  1  0
  3  5  1  0
  5  6  2  0
  6  7  1  0
  7  8  1  0
  8  9  1  0
  9 10  2  0
 10 11  1  0
 11 12  1  0
 12 13  2  0
 13 14  1  0
 14 15  2  0
 15 16  1  0
  8 17  2  0
  3 18  1  0
 18 19  1  0
 19 20  1  0
 17  5  1  0
 20 18  1  0
 16  9  1  0
 15 11  1  0
  1 21  1  0
  1 22  1  0
  1 23  1  0
  4 24  1  0
  4 25  1  0
  4 26  1  0
 10 27  1  0
 12 28  1  0
 13 29  1  0
 18 30  1  0
 19 31  1  0
 19 32  1  0
 20 33  1  0
 20 34  1  0
M  END
>  <Energy>  (609) 
426.20922786605416

>  <compound_id>  (609) 
76534

>  <target_id>  (609) 
1

>  <reference_id>  (609) 
7

>  <inspiration_ids>  (609) 
[7, 45]

>  <energy_score>  (609) 
267.653749266304

>  <distance_score>  (609) 
11.318447680631374

>  <path>  (609) 
/opt/xchem-fragalysis-2/maxwin/BulkDock/SCRATCH/511022/C76534-P7/C76534-P7.minimised.mol

>  <scratch_subdir>  (609) 
/opt/xchem-fragalysis-2/maxwin/BulkDock/SCRATCH/511022/C76534-P7

>  <fragmenstein_runtime>  (609) 
11.42027997970581

>  <fragmenstein_outcome>  (609) 
too moved

>  <fragmenstein_mode>  (609) 
expansion

>  <fragmenstein_error>  (609) 


$$$$
C76534-P45
     RDKit          3D

 34 37  0  0  0  0  0  0  0  0999 V2000
  -15.2240  -15.1290   34.5216 C   0  0  0  0  0  0  0  0  0  0  0  0
  -14.3269  -15.7936   33.6285 O   0  0  0  0  0  0  0  0  0  0  0  0
  -13.1773  -15.0204   32.9746 C   0  0  0  0  0  0  0  0  0  0  0  0
  -13.5184  -13.4405   33.3382 C   0  0  0  0  0  0  0  0  0  0  0  0
  -13.0579  -15.4286   31.1101 C   0  0  0  0  0  0  0  0  0  0  0  0
  -12.1289  -15.5303   30.1944 N   0  0  0  0  0  0  0  0  0  0  0  0
  -12.6882  -16.2029   29.0680 O   0  0  0  0  0  0  0  0  0  0  0  0
  -14.0474  -16.0459   28.9055 C   0  0  0  0  0  0  0  0  0  0  0  0
  -15.2735  -16.7613   27.8808 C   0  0  0  0  0  0  0  0  0  0  0  0
  -15.4707  -16.5897   26.5382 C   0  0  0  0  0  0  0  0  0  0  0  0
  -16.1454  -17.6278   25.9302 N   0  0  0  0  0  0  0  0  0  0  0  0
  -16.2436  -18.0874   24.6495 C   0  0  0  0  0  0  0  0  0  0  0  0
  -16.8587  -19.3214   24.7759 C   0  0  0  0  0  0  0  0  0  0  0  0
  -17.1538  -19.6069   26.0935 N   0  0  0  0  0  0  0  0  0  0  0  0
  -16.7113  -18.5587   26.7313 C   0  0  0  0  0  0  0  0  0  0  0  0
  -16.4632  -18.1669   28.3859 S   0  0  0  0  0  0  0  0  0  0  0  0
  -14.0987  -15.6539   30.1662 N   0  0  0  0  0  0  0  0  0  0  0  0
  -11.9821  -15.4983   33.9190 C   0  0  0  0  0  0  0  0  0  0  0  0
  -12.0027  -16.8532   34.6582 C   0  0  0  0  0  0  0  0  0  0  0  0
  -12.0212  -15.6003   35.4525 C   0  0  0  0  0  0  0  0  0  0  0  0
  -15.8923  -14.4472   33.9908 H   0  0  0  0  0  0  0  0  0  0  0  0
  -14.7279  -14.6299   35.3527 H   0  0  0  0  0  0  0  0  0  0  0  0
  -15.8611  -15.9053   34.9578 H   0  0  0  0  0  0  0  0  0  0  0  0
  -12.8966  -12.6900   32.8891 H   0  0  0  0  0  0  0  0  0  0  0  0
  -14.5308  -13.0937   33.1038 H   0  0  0  0  0  0  0  0  0  0  0  0
  -13.4844  -13.2950   34.4222 H   0  0  0  0  0  0  0  0  0  0  0  0
  -15.0307  -15.8569   25.8766 H   0  0  0  0  0  0  0  0  0  0  0  0
  -15.8599  -17.5475   23.7963 H   0  0  0  0  0  0  0  0  0  0  0  0
  -17.1072  -20.0203   23.9864 H   0  0  0  0  0  0  0  0  0  0  0  0
  -11.0320  -15.2411   33.4657 H   0  0  0  0  0  0  0  0  0  0  0  0
  -11.0878  -17.4352   34.6400 H   0  0  0  0  0  0  0  0  0  0  0  0
  -12.8993  -17.4572   34.6203 H   0  0  0  0  0  0  0  0  0  0  0  0
  -12.9202  -15.3676   35.9984 H   0  0  0  0  0  0  0  0  0  0  0  0
  -11.1166  -15.3662   36.0016 H   0  0  0  0  0  0  0  0  0  0  0  0
  1  2  1  0
  2  3  1  0
  3  4  1  0
  3  5  1  0
  5  6  2  0
  6  7  1  0
  7  8  1  0
  8  9  1  0
  9 10  2  0
 10 11  1  0
 11 12  1  0
 12 13  2  0
 13 14  1  0
 14 15  2  0
 15 16  1  0
  8 17  2  0
  3 18  1  0
 18 19  1  0
 19 20  1  0
 17  5  1  0
 20 18  1  0
 16  9  1  0
 15 11  1  0
  1 21  1  0
  1 22  1  0
  1 23  1  0
  4 24  1  0
  4 25  1  0
  4 26  1  0
 10 27  1  0
 12 28  1  0
 13 29  1  0
 18 30  1  0
 19 31  1  0
 19 32  1  0
 20 33  1  0
 20 34  1  0
M  END
>  <Energy>  (610) 
292.24649079403781

>  <compound_id>  (610) 
76534

>  <target_id>  (610) 
1

>  <reference_id>  (610) 
45

>  <inspiration_ids>  (610) 
[7, 45]

>  <energy_score>  (610) 
133.69101219428285

>  <distance_score>  (610) 
12.931572066757505

>  <path>  (610) 
/opt/xchem-fragalysis-2/maxwin/BulkDock/SCRATCH/511022/C76534-P45/C76534-P45.minimised.mol

>  <scratch_subdir>  (610) 
/opt/xchem-fragalysis-2/maxwin/BulkDock/SCRATCH/511022/C76534-P45

>  <fragmenstein_runtime>  (610) 
6.901009798049927

>  <fragmenstein_outcome>  (610) 
too moved

>  <fragmenstein_mode>  (610) 
expansion

>  <fragmenstein_error>  (610) 


$$$$
C76536-P7
     RDKit          3D

 46 49  0  0  0  0  0  0  0  0999 V2000
   -6.5236   -6.9617   35.1306 C   0  0  0  0  0  0  0  0  0  0  0  0
   -6.2987   -7.1546   33.7601 O   0  0  0  0  0  0  0  0  0  0  0  0
   -7.3343   -7.9071   33.1458 C   0  0  0  0  0  0  0  0  0  0  0  0
   -7.2094   -9.4046   33.4916 C   0  0  0  0  0  0  0  0  0  0  0  0
   -8.0515  -10.3523   32.7642 N   0  0  0  0  0  0  0  0  0  0  0  0
   -8.9412   -9.8170   31.8690 C   0  0  0  0  0  0  0  0  0  0  0  0
   -9.0305   -8.7405   31.3173 O   0  0  0  0  0  0  0  0  0  0  0  0
   -9.8787  -10.7531   31.7709 N   0  0  0  0  0  0  0  0  0  0  0  0
   -9.5640  -12.2494   32.5328 C   0  0  0  0  0  0  0  0  0  0  0  0
   -9.1117  -14.2576   31.7188 C   0  0  0  0  0  0  0  0  0  0  0  0
   -9.1702  -14.9313   29.7646 N   0  0  0  0  0  0  0  0  0  0  0  0
   -8.4015  -16.7173   28.7094 C   0  0  0  0  0  0  0  0  0  0  0  0
   -7.3106  -16.4872   28.2410 O   0  0  0  0  0  0  0  0  0  0  0  0
   -8.9755  -18.9197   28.3166 C   0  0  0  0  0  0  0  0  0  0  0  0
   -9.4149  -20.4990   27.5175 C   0  0  0  0  0  0  0  0  0  0  0  0
  -10.9857  -21.1230   26.7686 C   0  0  0  0  0  0  0  0  0  0  0  0
  -11.5130  -22.0662   27.4859 C   0  0  0  0  0  0  0  0  0  0  0  0
  -10.8651  -21.9818   28.6994 C   0  0  0  0  0  0  0  0  0  0  0  0
  -11.1837  -22.8812   29.6286 N   0  0  0  0  0  0  0  0  0  0  0  0
  -11.1643  -22.2763   30.8083 C   0  0  0  0  0  0  0  0  0  0  0  0
  -10.9941  -20.9449   30.5124 C   0  0  0  0  0  0  0  0  0  0  0  0
   -9.9894  -20.5318   29.1889 N   0  0  0  0  0  0  0  0  0  0  0  0
   -8.5196  -14.9100   31.7231 C   0  0  0  0  0  0  0  0  0  0  0  0
   -7.6976  -13.4370   32.8167 C   0  0  0  0  0  0  0  0  0  0  0  0
   -8.5810  -11.7391   33.3039 C   0  0  0  0  0  0  0  0  0  0  0  0
   -6.5539   -7.9089   35.6737 H   0  0  0  0  0  0  0  0  0  0  0  0
   -5.6623   -6.4055   35.4951 H   0  0  0  0  0  0  0  0  0  0  0  0
   -7.4398   -6.3897   35.2674 H   0  0  0  0  0  0  0  0  0  0  0  0
   -8.3170   -7.5025   33.3994 H   0  0  0  0  0  0  0  0  0  0  0  0
   -7.1578   -7.7641   32.0764 H   0  0  0  0  0  0  0  0  0  0  0  0
   -7.3824   -9.5650   34.5589 H   0  0  0  0  0  0  0  0  0  0  0  0
   -6.1738   -9.6737   33.2695 H   0  0  0  0  0  0  0  0  0  0  0  0
  -10.6862  -10.5303   31.2008 H   0  0  0  0  0  0  0  0  0  0  0  0
  -10.4623  -11.6838   32.8353 H   0  0  0  0  0  0  0  0  0  0  0  0
   -9.8006  -14.8842   32.7809 H   0  0  0  0  0  0  0  0  0  0  0  0
  -10.2072  -14.4366   31.8747 H   0  0  0  0  0  0  0  0  0  0  0  0
   -8.3926  -21.0934   27.2933 H   0  0  0  0  0  0  0  0  0  0  0  0
  -11.4351  -20.6236   25.9074 H   0  0  0  0  0  0  0  0  0  0  0  0
  -12.4154  -22.6164   27.2982 H   0  0  0  0  0  0  0  0  0  0  0  0
  -11.4758  -22.7474   31.7319 H   0  0  0  0  0  0  0  0  0  0  0  0
  -12.0042  -20.7127   30.1287 H   0  0  0  0  0  0  0  0  0  0  0  0
   -7.3578  -14.6878   31.3483 H   0  0  0  0  0  0  0  0  0  0  0  0
   -8.4873  -15.8895   32.4767 H   0  0  0  0  0  0  0  0  0  0  0  0
   -7.2544  -13.9188   33.6606 H   0  0  0  0  0  0  0  0  0  0  0  0
   -6.9961  -13.0037   32.0466 H   0  0  0  0  0  0  0  0  0  0  0  0
   -8.8764  -11.5324   34.3275 H   0  0  0  0  0  0  0  0  0  0  0  0
  1  2  1  0
  2  3  1  0
  3  4  1  0
  4  5  1  0
  5  6  1  0
  6  7  2  0
  6  8  1  0
  8  9  1  0
  9 10  1  0
 10 11  1  0
 11 12  1  0
 12 13  2  0
 12 14  1  0
 14 15  2  0
 15 16  1  0
 16 17  2  0
 17 18  1  0
 18 19  2  0
 19 20  1  0
 20 21  2  0
 21 22  1  0
 11 23  1  0
 23 24  1  0
 24 25  1  0
 25  5  1  0
 25  9  1  0
 22 14  1  0
 22 18  1  0
  1 26  1  0
  1 27  1  0
  1 28  1  0
  3 29  1  0
  3 30  1  0
  4 31  1  0
  4 32  1  0
  8 33  1  0
  9 34  1  0
 10 35  1  0
 10 36  1  0
 15 37  1  0
 16 38  1  0
 17 39  1  0
 20 40  1  0
 21 41  1  0
 23 42  1  0
 23 43  1  0
 24 44  1  0
 24 45  1  0
 25 46  1  0
M  END
>  <Energy>  (611) 
2486.5382235481634

>  <compound_id>  (611) 
76536

>  <target_id>  (611) 
1

>  <reference_id>  (611) 
7

>  <inspiration_ids>  (611) 
[7, 45]

>  <energy_score>  (611) 
2449.9305980998793

>  <distance_score>  (611) 
9.887791218640265

>  <path>  (611) 
/opt/xchem-fragalysis-2/maxwin/BulkDock/SCRATCH/511022/C76536-P7/C76536-P7.minimised.mol

>  <scratch_subdir>  (611) 
/opt/xchem-fragalysis-2/maxwin/BulkDock/SCRATCH/511022/C76536-P7

>  <fragmenstein_runtime>  (611) 
19.750049829483032

>  <fragmenstein_outcome>  (611) 
too moved

>  <fragmenstein_mode>  (611) 
expansion

>  <fragmenstein_error>  (611) 


$$$$
C76536-P45
     RDKit          3D

 46 49  0  0  0  0  0  0  0  0999 V2000
  -12.0407   -5.0241   35.3191 C   0  0  0  0  0  0  0  0  0  0  0  0
  -10.8302   -5.7806   35.1375 O   0  0  0  0  0  0  0  0  0  0  0  0
  -10.6573   -6.7702   34.0564 C   0  0  0  0  0  0  0  0  0  0  0  0
   -9.2665   -7.7751   33.3384 C   0  0  0  0  0  0  0  0  0  0  0  0
   -9.4136   -9.3961   33.1422 N   0  0  0  0  0  0  0  0  0  0  0  0
  -10.4848   -9.9266   32.4803 C   0  0  0  0  0  0  0  0  0  0  0  0
  -11.1074   -9.4797   31.5378 O   0  0  0  0  0  0  0  0  0  0  0  0
  -10.6790  -11.1688   33.0298 N   0  0  0  0  0  0  0  0  0  0  0  0
   -9.1406  -12.0946   33.4622 C   0  0  0  0  0  0  0  0  0  0  0  0
   -8.5313  -14.0623   32.6120 C   0  0  0  0  0  0  0  0  0  0  0  0
  -10.2798  -14.7957   32.3679 N   0  0  0  0  0  0  0  0  0  0  0  0
  -10.2244  -16.4235   31.8346 C   0  0  0  0  0  0  0  0  0  0  0  0
  -10.1839  -17.2798   33.0647 O   0  0  0  0  0  0  0  0  0  0  0  0
  -10.5220  -17.9093   29.8661 C   0  0  0  0  0  0  0  0  0  0  0  0
  -10.4415  -19.6636   30.8819 C   0  0  0  0  0  0  0  0  0  0  0  0
  -10.6392  -21.0480   29.9749 C   0  0  0  0  0  0  0  0  0  0  0  0
  -10.0004  -21.1140   28.7407 C   0  0  0  0  0  0  0  0  0  0  0  0
   -8.7995  -19.6976   28.2804 C   0  0  0  0  0  0  0  0  0  0  0  0
   -8.0313  -18.4830   28.7382 N   0  0  0  0  0  0  0  0  0  0  0  0
   -8.0338  -17.2023   27.9960 C   0  0  0  0  0  0  0  0  0  0  0  0
   -8.9869  -17.5274   27.1053 C   0  0  0  0  0  0  0  0  0  0  0  0
   -9.3869  -18.4550   28.2318 N   0  0  0  0  0  0  0  0  0  0  0  0
   -9.3226  -13.8165   32.6607 C   0  0  0  0  0  0  0  0  0  0  0  0
   -8.6110  -11.7360   32.5386 C   0  0  0  0  0  0  0  0  0  0  0  0
   -8.4898  -10.6420   33.5197 C   0  0  0  0  0  0  0  0  0  0  0  0
  -12.0350   -4.5806   36.3182 H   0  0  0  0  0  0  0  0  0  0  0  0
  -12.0619   -4.1510   34.6739 H   0  0  0  0  0  0  0  0  0  0  0  0
  -12.9320   -5.6284   35.1831 H   0  0  0  0  0  0  0  0  0  0  0  0
  -11.1545   -6.6065   33.1290 H   0  0  0  0  0  0  0  0  0  0  0  0
  -11.3921   -7.3198   34.6004 H   0  0  0  0  0  0  0  0  0  0  0  0
   -9.2294   -7.4809   32.2907 H   0  0  0  0  0  0  0  0  0  0  0  0
   -8.3038   -7.5100   33.7731 H   0  0  0  0  0  0  0  0  0  0  0  0
  -11.6026  -11.4929   32.7326 H   0  0  0  0  0  0  0  0  0  0  0  0
   -9.2956  -11.8667   34.5114 H   0  0  0  0  0  0  0  0  0  0  0  0
   -7.8210  -14.9250   33.0897 H   0  0  0  0  0  0  0  0  0  0  0  0
   -7.7090  -14.1976   31.7085 H   0  0  0  0  0  0  0  0  0  0  0  0
  -10.5645  -19.8073   31.9972 H   0  0  0  0  0  0  0  0  0  0  0  0
  -11.2942  -21.8135   30.3823 H   0  0  0  0  0  0  0  0  0  0  0  0
  -10.0807  -21.9565   28.0733 H   0  0  0  0  0  0  0  0  0  0  0  0
   -7.5472  -16.2537   28.1033 H   0  0  0  0  0  0  0  0  0  0  0  0
   -9.7109  -16.8396   26.6154 H   0  0  0  0  0  0  0  0  0  0  0  0
  -10.1471  -13.7677   33.3683 H   0  0  0  0  0  0  0  0  0  0  0  0
   -9.6324  -14.0690   31.4485 H   0  0  0  0  0  0  0  0  0  0  0  0
   -7.5164  -11.7194   32.1157 H   0  0  0  0  0  0  0  0  0  0  0  0
   -8.9826  -11.0360   31.7082 H   0  0  0  0  0  0  0  0  0  0  0  0
   -7.4708  -10.2767   33.4536 H   0  0  0  0  0  0  0  0  0  0  0  0
  1  2  1  0
  2  3  1  0
  3  4  1  0
  4  5  1  0
  5  6  1  0
  6  7  2  0
  6  8  1  0
  8  9  1  0
  9 10  1  0
 10 11  1  0
 11 12  1  0
 12 13  2  0
 12 14  1  0
 14 15  2  0
 15 16  1  0
 16 17  2  0
 17 18  1  0
 18 19  2  0
 19 20  1  0
 20 21  2  0
 21 22  1  0
 11 23  1  0
 23 24  1  0
 24 25  1  0
 25  5  1  0
 25  9  1  0
 22 14  1  0
 22 18  1  0
  1 26  1  0
  1 27  1  0
  1 28  1  0
  3 29  1  0
  3 30  1  0
  4 31  1  0
  4 32  1  0
  8 33  1  0
  9 34  1  0
 10 35  1  0
 10 36  1  0
 15 37  1  0
 16 38  1  0
 17 39  1  0
 20 40  1  0
 21 41  1  0
 23 42  1  0
 23 43  1  0
 24 44  1  0
 24 45  1  0
 25 46  1  0
M  END
>  <Energy>  (612) 
2644.0577475522869

>  <compound_id>  (612) 
76536

>  <target_id>  (612) 
1

>  <reference_id>  (612) 
45

>  <inspiration_ids>  (612) 
[7, 45]

>  <energy_score>  (612) 
2607.450122104007

>  <distance_score>  (612) 
9.498875255986276

>  <path>  (612) 
/opt/xchem-fragalysis-2/maxwin/BulkDock/SCRATCH/511022/C76536-P45/C76536-P45.minimised.mol

>  <scratch_subdir>  (612) 
/opt/xchem-fragalysis-2/maxwin/BulkDock/SCRATCH/511022/C76536-P45

>  <fragmenstein_runtime>  (612) 
20.42130398750305

>  <fragmenstein_outcome>  (612) 
too moved

>  <fragmenstein_mode>  (612) 
expansion

>  <fragmenstein_error>  (612) 


$$$$
C52767-P7
     RDKit          3D

 36 38  0  0  0  0  0  0  0  0999 V2000
   -7.3344   -8.1915   33.5770 C   0  0  0  0  0  0  0  0  0  0  0  0
   -6.9905   -8.5432   32.2377 O   0  0  0  0  0  0  0  0  0  0  0  0
   -6.3071   -9.8242   32.1314 C   0  0  0  0  0  0  0  0  0  0  0  0
   -7.3444  -10.9343   32.0154 C   0  0  0  0  0  0  0  0  0  0  0  0
   -7.0309  -12.7595   31.9961 C   0  0  0  0  0  0  0  0  0  0  0  0
   -7.7540  -13.5286   32.8780 N   0  0  0  0  0  0  0  0  0  0  0  0
   -8.3259  -14.8128   32.4512 C   0  0  0  0  0  0  0  0  0  0  0  0
   -7.3178  -15.7422   32.7521 C   0  0  0  0  0  0  0  0  0  0  0  0
   -7.0088  -17.5801   32.1410 C   0  0  0  0  0  0  0  0  0  0  0  0
   -7.0061  -18.4535   30.4231 N   0  0  0  0  0  0  0  0  0  0  0  0
   -8.0743  -18.9494   28.7594 C   0  0  0  0  0  0  0  0  0  0  0  0
   -7.3680  -20.5968   27.6708 C   0  0  0  0  0  0  0  0  0  0  0  0
   -7.6779  -21.9954   27.6079 C   0  0  0  0  0  0  0  0  0  0  0  0
   -6.3317  -23.0401   27.4370 S   0  0  0  0  0  0  0  0  0  0  0  0
   -5.3706  -21.8970   26.8558 C   0  0  0  0  0  0  0  0  0  0  0  0
   -4.9628  -21.6257   25.6041 N   0  0  0  0  0  0  0  0  0  0  0  0
   -4.7863  -20.3969   25.2549 C   0  0  0  0  0  0  0  0  0  0  0  0
   -5.5931  -19.9417   26.2661 C   0  0  0  0  0  0  0  0  0  0  0  0
   -5.9076  -20.7356   27.2931 N   0  0  0  0  0  0  0  0  0  0  0  0
   -6.8304  -14.2364   30.9861 S   0  0  0  0  0  0  0  0  0  0  0  0
   -8.1133   -7.4306   33.5402 H   0  0  0  0  0  0  0  0  0  0  0  0
   -7.6851   -9.0600   34.1353 H   0  0  0  0  0  0  0  0  0  0  0  0
   -6.4544   -7.7745   34.0749 H   0  0  0  0  0  0  0  0  0  0  0  0
   -5.6177   -9.8874   32.9650 H   0  0  0  0  0  0  0  0  0  0  0  0
   -5.7144   -9.7913   31.2116 H   0  0  0  0  0  0  0  0  0  0  0  0
   -8.0271  -10.5490   31.2586 H   0  0  0  0  0  0  0  0  0  0  0  0
   -8.0452  -10.8124   32.8566 H   0  0  0  0  0  0  0  0  0  0  0  0
   -9.3762  -15.0303   32.6103 H   0  0  0  0  0  0  0  0  0  0  0  0
   -7.4413  -18.2061   32.9314 H   0  0  0  0  0  0  0  0  0  0  0  0
   -5.9451  -17.5485   32.3784 H   0  0  0  0  0  0  0  0  0  0  0  0
   -6.6744  -19.3484   30.8166 H   0  0  0  0  0  0  0  0  0  0  0  0
   -8.9336  -18.6182   28.1990 H   0  0  0  0  0  0  0  0  0  0  0  0
   -7.8224  -17.9239   28.3750 H   0  0  0  0  0  0  0  0  0  0  0  0
   -8.5521  -22.5415   27.8698 H   0  0  0  0  0  0  0  0  0  0  0  0
   -4.4735  -20.0301   24.2788 H   0  0  0  0  0  0  0  0  0  0  0  0
   -6.5751  -19.6479   26.2321 H   0  0  0  0  0  0  0  0  0  0  0  0
  1  2  1  0
  2  3  1  0
  3  4  1  0
  4  5  1  0
  5  6  2  0
  6  7  1  0
  7  8  2  0
  8  9  1  0
  9 10  1  0
 10 11  1  0
 11 12  1  0
 12 13  2  0
 13 14  1  0
 14 15  1  0
 15 16  2  0
 16 17  1  0
 17 18  2  0
 18 19  1  0
  8 20  1  0
 20  5  1  0
 19 12  1  0
 19 15  1  0
  1 21  1  0
  1 22  1  0
  1 23  1  0
  3 24  1  0
  3 25  1  0
  4 26  1  0
  4 27  1  0
  7 28  1  0
  9 29  1  0
  9 30  1  0
 10 31  1  0
 11 32  1  0
 11 33  1  0
 13 34  1  0
 17 35  1  0
 18 36  1  0
M  END
>  <Energy>  (613) 
779.76472850785615

>  <compound_id>  (613) 
52767

>  <target_id>  (613) 
1

>  <reference_id>  (613) 
7

>  <inspiration_ids>  (613) 
[7, 45]

>  <energy_score>  (613) 
661.697356950617

>  <distance_score>  (613) 
10.88772263246028

>  <path>  (613) 
/opt/xchem-fragalysis-2/maxwin/BulkDock/SCRATCH/511022/C52767-P7/C52767-P7.minimised.mol

>  <scratch_subdir>  (613) 
/opt/xchem-fragalysis-2/maxwin/BulkDock/SCRATCH/511022/C52767-P7

>  <fragmenstein_runtime>  (613) 
9.680575609207153

>  <fragmenstein_outcome>  (613) 
too moved

>  <fragmenstein_mode>  (613) 
expansion

>  <fragmenstein_error>  (613) 


$$$$
C52767-P45
     RDKit          3D

 36 38  0  0  0  0  0  0  0  0999 V2000
   -9.2328   -6.6943   39.8825 C   0  0  0  0  0  0  0  0  0  0  0  0
   -9.0059   -5.8938   38.7124 O   0  0  0  0  0  0  0  0  0  0  0  0
   -8.7947   -6.8296   37.1745 C   0  0  0  0  0  0  0  0  0  0  0  0
   -7.9815   -7.0026   35.2110 C   0  0  0  0  0  0  0  0  0  0  0  0
   -8.3391   -8.2783   33.5799 C   0  0  0  0  0  0  0  0  0  0  0  0
   -9.3599   -9.0747   33.1116 N   0  0  0  0  0  0  0  0  0  0  0  0
   -8.8827  -10.5606   32.3021 C   0  0  0  0  0  0  0  0  0  0  0  0
   -8.5702  -12.1611   33.0161 C   0  0  0  0  0  0  0  0  0  0  0  0
   -7.9802  -14.2412   32.5320 C   0  0  0  0  0  0  0  0  0  0  0  0
   -7.9080  -16.3651   32.5357 N   0  0  0  0  0  0  0  0  0  0  0  0
   -7.3962  -17.8358   30.9960 C   0  0  0  0  0  0  0  0  0  0  0  0
   -7.9179  -18.9973   29.1130 C   0  0  0  0  0  0  0  0  0  0  0  0
   -9.0457  -19.8408   28.3333 C   0  0  0  0  0  0  0  0  0  0  0  0
  -10.0351  -21.8135   28.3290 S   0  0  0  0  0  0  0  0  0  0  0  0
   -8.3400  -22.1498   28.0322 C   0  0  0  0  0  0  0  0  0  0  0  0
   -7.7699  -23.3151   27.9927 N   0  0  0  0  0  0  0  0  0  0  0  0
   -6.5027  -23.0397   27.7363 C   0  0  0  0  0  0  0  0  0  0  0  0
   -6.3115  -21.6896   27.6995 C   0  0  0  0  0  0  0  0  0  0  0  0
   -7.5232  -20.6993   28.0643 N   0  0  0  0  0  0  0  0  0  0  0  0
   -7.3322  -10.1712   33.0225 S   0  0  0  0  0  0  0  0  0  0  0  0
  -10.0645   -7.3895   39.7561 H   0  0  0  0  0  0  0  0  0  0  0  0
   -8.3226   -7.2418   40.1440 H   0  0  0  0  0  0  0  0  0  0  0  0
   -9.4696   -6.0159   40.7065 H   0  0  0  0  0  0  0  0  0  0  0  0
   -8.2788   -7.3297   38.0223 H   0  0  0  0  0  0  0  0  0  0  0  0
   -9.4856   -7.4351   37.5518 H   0  0  0  0  0  0  0  0  0  0  0  0
   -8.2121   -6.0567   34.7840 H   0  0  0  0  0  0  0  0  0  0  0  0
   -6.8809   -7.0523   35.3139 H   0  0  0  0  0  0  0  0  0  0  0  0
   -9.1789  -10.4173   31.2633 H   0  0  0  0  0  0  0  0  0  0  0  0
   -9.0225  -14.4867   32.2680 H   0  0  0  0  0  0  0  0  0  0  0  0
   -7.3086  -14.1139   31.6672 H   0  0  0  0  0  0  0  0  0  0  0  0
   -7.0768  -16.4802   33.1300 H   0  0  0  0  0  0  0  0  0  0  0  0
   -6.7580  -18.1950   31.8185 H   0  0  0  0  0  0  0  0  0  0  0  0
   -6.3924  -17.3940   30.6979 H   0  0  0  0  0  0  0  0  0  0  0  0
   -9.8035  -20.3516   29.3295 H   0  0  0  0  0  0  0  0  0  0  0  0
   -5.7770  -23.8129   27.5157 H   0  0  0  0  0  0  0  0  0  0  0  0
   -5.5107  -21.1712   27.2625 H   0  0  0  0  0  0  0  0  0  0  0  0
  1  2  1  0
  2  3  1  0
  3  4  1  0
  4  5  1  0
  5  6  2  0
  6  7  1  0
  7  8  2  0
  8  9  1  0
  9 10  1  0
 10 11  1  0
 11 12  1  0
 12 13  2  0
 13 14  1  0
 14 15  1  0
 15 16  2  0
 16 17  1  0
 17 18  2  0
 18 19  1  0
  8 20  1  0
 20  5  1  0
 19 12  1  0
 19 15  1  0
  1 21  1  0
  1 22  1  0
  1 23  1  0
  3 24  1  0
  3 25  1  0
  4 26  1  0
  4 27  1  0
  7 28  1  0
  9 29  1  0
  9 30  1  0
 10 31  1  0
 11 32  1  0
 11 33  1  0
 13 34  1  0
 17 35  1  0
 18 36  1  0
M  END
>  <Energy>  (614) 
2104.3437267066956

>  <compound_id>  (614) 
52767

>  <target_id>  (614) 
1

>  <reference_id>  (614) 
45

>  <inspiration_ids>  (614) 
[7, 45]

>  <energy_score>  (614) 
1986.2763551494643

>  <distance_score>  (614) 
8.458649361525424

>  <path>  (614) 
/opt/xchem-fragalysis-2/maxwin/BulkDock/SCRATCH/511022/C52767-P45/C52767-P45.minimised.mol

>  <scratch_subdir>  (614) 
/opt/xchem-fragalysis-2/maxwin/BulkDock/SCRATCH/511022/C52767-P45

>  <fragmenstein_runtime>  (614) 
9.762677431106567

>  <fragmenstein_outcome>  (614) 
too moved

>  <fragmenstein_mode>  (614) 
expansion

>  <fragmenstein_error>  (614) 


$$$$
C54314-P7
     RDKit          3D

 48 50  0  0  0  0  0  0  0  0999 V2000
  -13.2555   -4.8003   29.5588 C   0  0  0  0  0  0  0  0  0  0  0  0
  -12.2842   -5.8135   29.4036 O   0  0  0  0  0  0  0  0  0  0  0  0
  -12.7040   -6.8747   28.5457 C   0  0  0  0  0  0  0  0  0  0  0  0
  -11.5673   -7.9131   28.4699 C   0  0  0  0  0  0  0  0  0  0  0  0
  -11.7493   -9.1498   27.6797 N   0  0  0  0  0  0  0  0  0  0  0  0
  -11.0497   -9.1655   26.3976 C   0  0  0  0  0  0  0  0  0  0  0  0
  -11.0923  -10.5569   25.6508 C   0  0  0  0  0  0  0  0  0  0  0  0
  -11.8303  -11.7640   26.3394 C   0  0  0  0  0  0  0  0  0  0  0  0
  -11.1080  -13.2917   26.9539 C   0  0  0  0  0  0  0  0  0  0  0  0
   -9.6485  -13.8759   27.2616 N   0  0  0  0  0  0  0  0  0  0  0  0
   -8.5180  -14.7800   26.5259 C   0  0  0  0  0  0  0  0  0  0  0  0
   -8.5960  -15.7447   25.1786 C   0  0  0  0  0  0  0  0  0  0  0  0
   -9.6574  -16.6254   25.3233 C   0  0  0  0  0  0  0  0  0  0  0  0
  -10.4461  -17.1817   23.8458 C   0  0  0  0  0  0  0  0  0  0  0  0
   -9.9052  -17.0155   22.6137 C   0  0  0  0  0  0  0  0  0  0  0  0
   -8.5748  -16.4888   22.4641 C   0  0  0  0  0  0  0  0  0  0  0  0
   -7.7741  -16.5946   21.4253 N   0  0  0  0  0  0  0  0  0  0  0  0
   -6.6887  -15.8505   21.7262 C   0  0  0  0  0  0  0  0  0  0  0  0
   -6.7846  -15.2635   22.9660 C   0  0  0  0  0  0  0  0  0  0  0  0
   -7.8838  -15.8090   23.6623 N   0  0  0  0  0  0  0  0  0  0  0  0
  -13.0750  -11.1680   27.1201 C   0  0  0  0  0  0  0  0  0  0  0  0
  -13.0872   -9.6623   27.5064 C   0  0  0  0  0  0  0  0  0  0  0  0
  -12.8390   -4.0758   30.2571 H   0  0  0  0  0  0  0  0  0  0  0  0
  -13.4407   -4.3010   28.6032 H   0  0  0  0  0  0  0  0  0  0  0  0
  -14.1875   -5.2118   29.9485 H   0  0  0  0  0  0  0  0  0  0  0  0
  -12.9083   -6.4746   27.5462 H   0  0  0  0  0  0  0  0  0  0  0  0
  -13.6202   -7.3222   28.9427 H   0  0  0  0  0  0  0  0  0  0  0  0
  -10.6537   -7.3951   28.1463 H   0  0  0  0  0  0  0  0  0  0  0  0
  -11.3198   -8.2152   29.4920 H   0  0  0  0  0  0  0  0  0  0  0  0
   -9.9944   -8.9000   26.5425 H   0  0  0  0  0  0  0  0  0  0  0  0
  -11.4610   -8.3977   25.7286 H   0  0  0  0  0  0  0  0  0  0  0  0
  -10.0851  -10.8452   25.3464 H   0  0  0  0  0  0  0  0  0  0  0  0
  -11.6218  -10.3649   24.7056 H   0  0  0  0  0  0  0  0  0  0  0  0
  -12.3101  -12.2250   25.4594 H   0  0  0  0  0  0  0  0  0  0  0  0
  -11.6896  -14.0510   26.4236 H   0  0  0  0  0  0  0  0  0  0  0  0
  -11.5964  -13.4750   27.9082 H   0  0  0  0  0  0  0  0  0  0  0  0
   -9.3198  -13.6517   28.1955 H   0  0  0  0  0  0  0  0  0  0  0  0
   -8.3543  -15.5254   27.2996 H   0  0  0  0  0  0  0  0  0  0  0  0
   -7.6316  -14.1379   26.4947 H   0  0  0  0  0  0  0  0  0  0  0  0
  -10.0582  -16.7326   26.3183 H   0  0  0  0  0  0  0  0  0  0  0  0
  -11.4920  -17.4681   23.9072 H   0  0  0  0  0  0  0  0  0  0  0  0
  -10.4373  -17.3011   21.7151 H   0  0  0  0  0  0  0  0  0  0  0  0
   -5.9162  -15.6804   20.9869 H   0  0  0  0  0  0  0  0  0  0  0  0
   -6.1706  -14.4719   23.3270 H   0  0  0  0  0  0  0  0  0  0  0  0
  -13.9661  -11.3353   26.4985 H   0  0  0  0  0  0  0  0  0  0  0  0
  -13.2699  -11.7075   28.0445 H   0  0  0  0  0  0  0  0  0  0  0  0
  -13.6292   -9.0916   26.7408 H   0  0  0  0  0  0  0  0  0  0  0  0
  -13.6723   -9.5698   28.4280 H   0  0  0  0  0  0  0  0  0  0  0  0
  1  2  1  0
  2  3  1  0
  3  4  1  0
  4  5  1  0
  5  6  1  0
  6  7  1  0
  7  8  1  0
  8  9  1  0
  9 10  1  0
 10 11  1  0
 11 12  1  0
 12 13  2  0
 13 14  1  0
 14 15  2  0
 15 16  1  0
 16 17  2  0
 17 18  1  0
 18 19  2  0
 19 20  1  0
  8 21  1  0
 21 22  1  0
 22  5  1  0
 20 12  1  0
 20 16  1  0
  1 23  1  0
  1 24  1  0
  1 25  1  0
  3 26  1  0
  3 27  1  0
  4 28  1  0
  4 29  1  0
  6 30  1  0
  6 31  1  0
  7 32  1  0
  7 33  1  0
  8 34  1  0
  9 35  1  0
  9 36  1  0
 10 37  1  0
 11 38  1  0
 11 39  1  0
 13 40  1  0
 14 41  1  0
 15 42  1  0
 18 43  1  0
 19 44  1  0
 21 45  1  0
 21 46  1  0
 22 47  1  0
 22 48  1  0
M  END
>  <Energy>  (615) 
263.25206079530204

>  <compound_id>  (615) 
54314

>  <target_id>  (615) 
1

>  <reference_id>  (615) 
7

>  <inspiration_ids>  (615) 
[7, 45]

>  <energy_score>  (615) 
162.5786450553736

>  <distance_score>  (615) 
12.123089684426697

>  <path>  (615) 
/opt/xchem-fragalysis-2/maxwin/BulkDock/SCRATCH/511022/C54314-P7/C54314-P7.minimised.mol

>  <scratch_subdir>  (615) 
/opt/xchem-fragalysis-2/maxwin/BulkDock/SCRATCH/511022/C54314-P7

>  <fragmenstein_runtime>  (615) 
21.149558782577515

>  <fragmenstein_outcome>  (615) 
too moved

>  <fragmenstein_mode>  (615) 
expansion

>  <fragmenstein_error>  (615) 


$$$$
C54314-P45
     RDKit          3D

 48 50  0  0  0  0  0  0  0  0999 V2000
  -11.9668   -3.8282   36.2632 C   0  0  0  0  0  0  0  0  0  0  0  0
  -11.8464   -4.5140   35.0149 O   0  0  0  0  0  0  0  0  0  0  0  0
  -11.1319   -5.7629   35.0714 C   0  0  0  0  0  0  0  0  0  0  0  0
   -9.7078   -6.5020   33.9257 C   0  0  0  0  0  0  0  0  0  0  0  0
   -8.9223   -7.6270   33.6239 N   0  0  0  0  0  0  0  0  0  0  0  0
  -10.0208   -9.3129   33.6884 C   0  0  0  0  0  0  0  0  0  0  0  0
   -8.7470  -10.6180   34.7271 C   0  0  0  0  0  0  0  0  0  0  0  0
   -7.8210  -11.3066   33.0706 C   0  0  0  0  0  0  0  0  0  0  0  0
   -7.5526  -13.5729   32.6880 C   0  0  0  0  0  0  0  0  0  0  0  0
   -7.2918  -15.6759   32.6667 N   0  0  0  0  0  0  0  0  0  0  0  0
   -7.0870  -17.4612   31.4618 C   0  0  0  0  0  0  0  0  0  0  0  0
   -7.5233  -18.4654   29.5497 C   0  0  0  0  0  0  0  0  0  0  0  0
   -7.9369  -18.4149   28.0022 C   0  0  0  0  0  0  0  0  0  0  0  0
   -6.9868  -19.9440   26.9237 C   0  0  0  0  0  0  0  0  0  0  0  0
   -7.7479  -21.1800   26.9496 C   0  0  0  0  0  0  0  0  0  0  0  0
   -9.1224  -21.0086   27.7845 C   0  0  0  0  0  0  0  0  0  0  0  0
   -9.6142  -22.1462   28.3411 N   0  0  0  0  0  0  0  0  0  0  0  0
   -8.4460  -22.8915   28.3888 C   0  0  0  0  0  0  0  0  0  0  0  0
   -7.3650  -21.9297   28.5748 C   0  0  0  0  0  0  0  0  0  0  0  0
   -7.9959  -20.0295   28.4972 N   0  0  0  0  0  0  0  0  0  0  0  0
   -6.2378   -9.8220   33.6141 C   0  0  0  0  0  0  0  0  0  0  0  0
   -6.9863   -7.8037   33.9731 C   0  0  0  0  0  0  0  0  0  0  0  0
  -12.9556   -3.9940   36.6933 H   0  0  0  0  0  0  0  0  0  0  0  0
  -11.2072   -4.0594   36.9978 H   0  0  0  0  0  0  0  0  0  0  0  0
  -11.7962   -2.7665   36.0798 H   0  0  0  0  0  0  0  0  0  0  0  0
  -11.8893   -6.5136   35.2158 H   0  0  0  0  0  0  0  0  0  0  0  0
  -10.4819   -5.5987   35.9017 H   0  0  0  0  0  0  0  0  0  0  0  0
  -10.4945   -6.9661   33.3815 H   0  0  0  0  0  0  0  0  0  0  0  0
   -8.9749   -6.2937   34.7309 H   0  0  0  0  0  0  0  0  0  0  0  0
  -10.9816   -9.2529   34.2025 H   0  0  0  0  0  0  0  0  0  0  0  0
  -10.1909   -9.6991   32.7152 H   0  0  0  0  0  0  0  0  0  0  0  0
   -8.0726  -10.1545   35.4900 H   0  0  0  0  0  0  0  0  0  0  0  0
   -9.3342  -11.1400   35.4655 H   0  0  0  0  0  0  0  0  0  0  0  0
   -8.5431  -11.0350   32.2884 H   0  0  0  0  0  0  0  0  0  0  0  0
   -7.0085  -13.5341   31.7165 H   0  0  0  0  0  0  0  0  0  0  0  0
   -8.5879  -14.0119   32.6425 H   0  0  0  0  0  0  0  0  0  0  0  0
   -8.1039  -15.9299   33.2528 H   0  0  0  0  0  0  0  0  0  0  0  0
   -6.1418  -17.0160   31.1020 H   0  0  0  0  0  0  0  0  0  0  0  0
   -6.6839  -18.0281   32.3121 H   0  0  0  0  0  0  0  0  0  0  0  0
   -8.0121  -17.3840   27.6268 H   0  0  0  0  0  0  0  0  0  0  0  0
   -5.9043  -19.8168   26.6317 H   0  0  0  0  0  0  0  0  0  0  0  0
   -7.4248  -22.2353   26.6247 H   0  0  0  0  0  0  0  0  0  0  0  0
   -8.4048  -23.9727   28.3487 H   0  0  0  0  0  0  0  0  0  0  0  0
   -6.2781  -22.0291   28.4068 H   0  0  0  0  0  0  0  0  0  0  0  0
   -5.4009   -9.8213   32.8654 H   0  0  0  0  0  0  0  0  0  0  0  0
   -5.7048   -9.7174   34.6295 H   0  0  0  0  0  0  0  0  0  0  0  0
   -6.4912   -7.0187   33.3793 H   0  0  0  0  0  0  0  0  0  0  0  0
   -6.9085   -7.6087   35.0588 H   0  0  0  0  0  0  0  0  0  0  0  0
  1  2  1  0
  2  3  1  0
  3  4  1  0
  4  5  1  0
  5  6  1  0
  6  7  1  0
  7  8  1  0
  8  9  1  0
  9 10  1  0
 10 11  1  0
 11 12  1  0
 12 13  2  0
 13 14  1  0
 14 15  2  0
 15 16  1  0
 16 17  2  0
 17 18  1  0
 18 19  2  0
 19 20  1  0
  8 21  1  0
 21 22  1  0
 22  5  1  0
 20 12  1  0
 20 16  1  0
  1 23  1  0
  1 24  1  0
  1 25  1  0
  3 26  1  0
  3 27  1  0
  4 28  1  0
  4 29  1  0
  6 30  1  0
  6 31  1  0
  7 32  1  0
  7 33  1  0
  8 34  1  0
  9 35  1  0
  9 36  1  0
 10 37  1  0
 11 38  1  0
 11 39  1  0
 13 40  1  0
 14 41  1  0
 15 42  1  0
 18 43  1  0
 19 44  1  0
 21 45  1  0
 21 46  1  0
 22 47  1  0
 22 48  1  0
M  END
>  <Energy>  (616) 
2414.6506376677744

>  <compound_id>  (616) 
54314

>  <target_id>  (616) 
1

>  <reference_id>  (616) 
45

>  <inspiration_ids>  (616) 
[7, 45]

>  <energy_score>  (616) 
2313.977221927846

>  <distance_score>  (616) 
7.837863095071321

>  <path>  (616) 
/opt/xchem-fragalysis-2/maxwin/BulkDock/SCRATCH/511022/C54314-P45/C54314-P45.minimised.mol

>  <scratch_subdir>  (616) 
/opt/xchem-fragalysis-2/maxwin/BulkDock/SCRATCH/511022/C54314-P45

>  <fragmenstein_runtime>  (616) 
12.142219066619873

>  <fragmenstein_outcome>  (616) 
too moved

>  <fragmenstein_mode>  (616) 
expansion

>  <fragmenstein_error>  (616) 


$$$$
C76540-P7
     RDKit          3D

 36 38  0  0  0  0  0  0  0  0999 V2000
   -7.2999   -7.4518   33.9051 C   0  0  0  0  0  0  0  0  0  0  0  0
   -7.7252   -8.4015   32.9274 O   0  0  0  0  0  0  0  0  0  0  0  0
   -6.9148   -9.5808   33.0297 C   0  0  0  0  0  0  0  0  0  0  0  0
   -7.2561  -10.6703   31.9670 C   0  0  0  0  0  0  0  0  0  0  0  0
   -6.1086  -11.7022   31.4591 N   0  0  0  0  0  0  0  0  0  0  0  0
   -5.2104  -10.8780   30.6602 C   0  0  0  0  0  0  0  0  0  0  0  0
   -4.6852  -11.6730   29.7078 C   0  0  0  0  0  0  0  0  0  0  0  0
   -5.1076  -13.0122   29.8331 N   0  0  0  0  0  0  0  0  0  0  0  0
   -6.1024  -13.3685   30.6442 C   0  0  0  0  0  0  0  0  0  0  0  0
   -6.5415  -14.8935   31.2754 N   0  0  0  0  0  0  0  0  0  0  0  0
   -5.9588  -16.6375   30.8741 C   0  0  0  0  0  0  0  0  0  0  0  0
   -5.2180  -16.7736   29.9529 O   0  0  0  0  0  0  0  0  0  0  0  0
   -6.3546  -18.3941   32.0505 C   0  0  0  0  0  0  0  0  0  0  0  0
   -5.8900  -20.4686   32.1275 C   0  0  0  0  0  0  0  0  0  0  0  0
   -4.8386  -20.6226   31.3606 C   0  0  0  0  0  0  0  0  0  0  0  0
   -3.8398  -22.4929   30.3905 S   0  0  0  0  0  0  0  0  0  0  0  0
   -4.0650  -23.2551   31.7682 C   0  0  0  0  0  0  0  0  0  0  0  0
   -3.4218  -24.1759   32.7413 N   0  0  0  0  0  0  0  0  0  0  0  0
   -4.5818  -24.9945   33.1038 C   0  0  0  0  0  0  0  0  0  0  0  0
   -5.6595  -24.0272   32.0391 C   0  0  0  0  0  0  0  0  0  0  0  0
   -5.1519  -22.1820   32.4153 N   0  0  0  0  0  0  0  0  0  0  0  0
   -6.9886   -7.9297   34.8396 H   0  0  0  0  0  0  0  0  0  0  0  0
   -6.4562   -6.8819   33.5065 H   0  0  0  0  0  0  0  0  0  0  0  0
   -8.1253   -6.7878   34.1204 H   0  0  0  0  0  0  0  0  0  0  0  0
   -7.1566   -9.9594   34.0225 H   0  0  0  0  0  0  0  0  0  0  0  0
   -5.8575   -9.3016   32.9811 H   0  0  0  0  0  0  0  0  0  0  0  0
   -8.1140  -11.2208   32.3221 H   0  0  0  0  0  0  0  0  0  0  0  0
   -7.5248  -10.1061   31.0648 H   0  0  0  0  0  0  0  0  0  0  0  0
   -5.1142   -9.8217   30.8632 H   0  0  0  0  0  0  0  0  0  0  0  0
   -3.9695  -11.4064   28.9420 H   0  0  0  0  0  0  0  0  0  0  0  0
   -7.2512  -14.9472   32.0363 H   0  0  0  0  0  0  0  0  0  0  0  0
   -5.6561  -17.9704   32.7504 H   0  0  0  0  0  0  0  0  0  0  0  0
   -7.2391  -18.1926   32.6671 H   0  0  0  0  0  0  0  0  0  0  0  0
   -4.1164  -20.0009   31.1606 H   0  0  0  0  0  0  0  0  0  0  0  0
   -4.6931  -25.8554   33.7526 H   0  0  0  0  0  0  0  0  0  0  0  0
   -6.6630  -24.3850   32.3259 H   0  0  0  0  0  0  0  0  0  0  0  0
  1  2  1  0
  2  3  1  0
  3  4  1  0
  4  5  1  0
  5  6  1  0
  6  7  2  0
  7  8  1  0
  8  9  2  0
  9 10  1  0
 10 11  1  0
 11 12  2  0
 11 13  1  0
 13 14  1  0
 14 15  2  0
 15 16  1  0
 16 17  1  0
 17 18  2  0
 18 19  1  0
 19 20  2  0
 20 21  1  0
  9  5  1  0
 21 14  1  0
 21 17  1  0
  1 22  1  0
  1 23  1  0
  1 24  1  0
  3 25  1  0
  3 26  1  0
  4 27  1  0
  4 28  1  0
  6 29  1  0
  7 30  1  0
 10 31  1  0
 13 32  1  0
 13 33  1  0
 15 34  1  0
 19 35  1  0
 20 36  1  0
M  END
>  <Energy>  (617) 
1106.9383513702151

>  <compound_id>  (617) 
76540

>  <target_id>  (617) 
1

>  <reference_id>  (617) 
7

>  <inspiration_ids>  (617) 
[7, 45]

>  <energy_score>  (617) 
1041.4648177229342

>  <distance_score>  (617) 
10.953647797403436

>  <path>  (617) 
/opt/xchem-fragalysis-2/maxwin/BulkDock/SCRATCH/511022/C76540-P7/C76540-P7.minimised.mol

>  <scratch_subdir>  (617) 
/opt/xchem-fragalysis-2/maxwin/BulkDock/SCRATCH/511022/C76540-P7

>  <fragmenstein_runtime>  (617) 
20.71711754798889

>  <fragmenstein_outcome>  (617) 
too moved

>  <fragmenstein_mode>  (617) 
expansion

>  <fragmenstein_error>  (617) 


$$$$
C76540-P45
     RDKit          3D

 36 38  0  0  0  0  0  0  0  0999 V2000
  -11.2697   -6.3373   34.4880 C   0  0  0  0  0  0  0  0  0  0  0  0
   -9.9887   -7.1784   33.4622 O   0  0  0  0  0  0  0  0  0  0  0  0
   -9.4932   -8.7486   32.8099 C   0  0  0  0  0  0  0  0  0  0  0  0
   -8.1865  -10.0923   33.1745 C   0  0  0  0  0  0  0  0  0  0  0  0
   -7.3729  -11.3311   32.1469 N   0  0  0  0  0  0  0  0  0  0  0  0
   -6.2197  -10.6202   31.5722 C   0  0  0  0  0  0  0  0  0  0  0  0
   -5.3505  -11.5111   31.0085 C   0  0  0  0  0  0  0  0  0  0  0  0
   -5.8635  -12.9340   31.1101 N   0  0  0  0  0  0  0  0  0  0  0  0
   -6.9573  -13.1611   32.0111 C   0  0  0  0  0  0  0  0  0  0  0  0
   -7.2957  -14.9901   32.4008 N   0  0  0  0  0  0  0  0  0  0  0  0
   -6.0755  -16.4894   32.7135 C   0  0  0  0  0  0  0  0  0  0  0  0
   -4.9485  -16.2008   32.7601 O   0  0  0  0  0  0  0  0  0  0  0  0
   -6.2105  -18.5043   32.7919 C   0  0  0  0  0  0  0  0  0  0  0  0
   -5.0995  -20.2496   32.3925 C   0  0  0  0  0  0  0  0  0  0  0  0
   -5.7459  -21.4472   33.3418 C   0  0  0  0  0  0  0  0  0  0  0  0
   -5.2096  -23.5711   32.7900 S   0  0  0  0  0  0  0  0  0  0  0  0
   -4.0039  -23.0472   31.6566 C   0  0  0  0  0  0  0  0  0  0  0  0
   -3.5942  -23.6803   30.5746 N   0  0  0  0  0  0  0  0  0  0  0  0
   -4.3128  -23.6309   29.3937 C   0  0  0  0  0  0  0  0  0  0  0  0
   -4.4706  -22.2629   29.3316 C   0  0  0  0  0  0  0  0  0  0  0  0
   -4.2345  -21.6332   31.1753 N   0  0  0  0  0  0  0  0  0  0  0  0
  -11.8057   -7.0934   35.0865 H   0  0  0  0  0  0  0  0  0  0  0  0
  -10.7245   -5.7187   35.2268 H   0  0  0  0  0  0  0  0  0  0  0  0
  -12.0703   -5.6265   34.2489 H   0  0  0  0  0  0  0  0  0  0  0  0
  -10.3625   -9.2665   32.4067 H   0  0  0  0  0  0  0  0  0  0  0  0
   -9.0121   -8.3209   31.9192 H   0  0  0  0  0  0  0  0  0  0  0  0
   -7.3022   -9.4545   33.3254 H   0  0  0  0  0  0  0  0  0  0  0  0
   -8.2641  -10.5898   34.1400 H   0  0  0  0  0  0  0  0  0  0  0  0
   -6.2040   -9.5409   31.6031 H   0  0  0  0  0  0  0  0  0  0  0  0
   -4.4525  -11.3402   30.4285 H   0  0  0  0  0  0  0  0  0  0  0  0
   -8.2529  -15.3313   32.4676 H   0  0  0  0  0  0  0  0  0  0  0  0
   -6.7299  -18.1860   31.8784 H   0  0  0  0  0  0  0  0  0  0  0  0
   -6.8012  -18.7008   33.6984 H   0  0  0  0  0  0  0  0  0  0  0  0
   -4.7593  -21.8521   33.3135 H   0  0  0  0  0  0  0  0  0  0  0  0
   -4.4465  -24.3878   28.6320 H   0  0  0  0  0  0  0  0  0  0  0  0
   -5.2824  -21.9072   28.6966 H   0  0  0  0  0  0  0  0  0  0  0  0
  1  2  1  0
  2  3  1  0
  3  4  1  0
  4  5  1  0
  5  6  1  0
  6  7  2  0
  7  8  1  0
  8  9  2  0
  9 10  1  0
 10 11  1  0
 11 12  2  0
 11 13  1  0
 13 14  1  0
 14 15  2  0
 15 16  1  0
 16 17  1  0
 17 18  2  0
 18 19  1  0
 19 20  2  0
 20 21  1  0
  9  5  1  0
 21 14  1  0
 21 17  1  0
  1 22  1  0
  1 23  1  0
  1 24  1  0
  3 25  1  0
  3 26  1  0
  4 27  1  0
  4 28  1  0
  6 29  1  0
  7 30  1  0
 10 31  1  0
 13 32  1  0
 13 33  1  0
 15 34  1  0
 19 35  1  0
 20 36  1  0
M  END
>  <Energy>  (618) 
1347.5472541591475

>  <compound_id>  (618) 
76540

>  <target_id>  (618) 
1

>  <reference_id>  (618) 
45

>  <inspiration_ids>  (618) 
[7, 45]

>  <energy_score>  (618) 
1282.0737205118526

>  <distance_score>  (618) 
10.04916088642732

>  <path>  (618) 
/opt/xchem-fragalysis-2/maxwin/BulkDock/SCRATCH/511022/C76540-P45/C76540-P45.minimised.mol

>  <scratch_subdir>  (618) 
/opt/xchem-fragalysis-2/maxwin/BulkDock/SCRATCH/511022/C76540-P45

>  <fragmenstein_runtime>  (618) 
14.074629068374634

>  <fragmenstein_outcome>  (618) 
too moved

>  <fragmenstein_mode>  (618) 
expansion

>  <fragmenstein_error>  (618) 


$$$$
C76545-P7
     RDKit          3D

 44 46  0  0  0  0  0  0  0  0999 V2000
  -11.2674   -3.9972   36.3015 C   0  0  0  0  0  0  0  0  0  0  0  0
  -11.3672   -4.8248   35.1517 O   0  0  0  0  0  0  0  0  0  0  0  0
  -10.5446   -6.0620   34.9807 C   0  0  0  0  0  0  0  0  0  0  0  0
   -9.8391   -7.2056   33.4609 C   0  0  0  0  0  0  0  0  0  0  0  0
   -9.9708   -9.1145   33.1427 C   0  0  0  0  0  0  0  0  0  0  0  0
   -9.1811  -10.6080   32.3825 C   0  0  0  0  0  0  0  0  0  0  0  0
   -8.9804  -12.4223   32.9886 N   0  0  0  0  0  0  0  0  0  0  0  0
   -8.4849  -14.4115   32.5349 C   0  0  0  0  0  0  0  0  0  0  0  0
   -9.9970  -15.3103   33.0685 C   0  0  0  0  0  0  0  0  0  0  0  0
   -7.3249  -16.2124   33.0058 C   0  0  0  0  0  0  0  0  0  0  0  0
   -7.1334  -18.2354   32.7101 N   0  0  0  0  0  0  0  0  0  0  0  0
   -6.6784  -19.3224   31.1303 C   0  0  0  0  0  0  0  0  0  0  0  0
   -6.3773  -18.6511   30.2419 O   0  0  0  0  0  0  0  0  0  0  0  0
   -7.0133  -21.5725   31.1041 C   0  0  0  0  0  0  0  0  0  0  0  0
   -7.3099  -22.3505   29.1086 C   0  0  0  0  0  0  0  0  0  0  0  0
   -6.7370  -22.2707   27.7868 C   0  0  0  0  0  0  0  0  0  0  0  0
   -6.0956  -23.3933   27.8729 C   0  0  0  0  0  0  0  0  0  0  0  0
   -5.7936  -24.1511   29.4071 N   0  0  0  0  0  0  0  0  0  0  0  0
   -4.3688  -23.9371   29.1016 C   0  0  0  0  0  0  0  0  0  0  0  0
   -4.0196  -23.4094   30.3472 C   0  0  0  0  0  0  0  0  0  0  0  0
   -4.5576  -23.4022   31.5843 N   0  0  0  0  0  0  0  0  0  0  0  0
   -5.8304  -23.4295   31.2861 C   0  0  0  0  0  0  0  0  0  0  0  0
   -9.8356  -11.1552   31.9000 N   0  0  0  0  0  0  0  0  0  0  0  0
  -10.6943   -9.6938   32.3365 N   0  0  0  0  0  0  0  0  0  0  0  0
  -10.8345   -4.4876   37.1636 H   0  0  0  0  0  0  0  0  0  0  0  0
  -12.2715   -3.6539   36.5672 H   0  0  0  0  0  0  0  0  0  0  0  0
  -10.6810   -3.1050   36.0644 H   0  0  0  0  0  0  0  0  0  0  0  0
   -9.7050   -5.6975   35.5963 H   0  0  0  0  0  0  0  0  0  0  0  0
  -11.2381   -6.7156   35.4356 H   0  0  0  0  0  0  0  0  0  0  0  0
   -8.8113   -7.1840   33.7872 H   0  0  0  0  0  0  0  0  0  0  0  0
  -10.7593   -7.5108   33.8004 H   0  0  0  0  0  0  0  0  0  0  0  0
   -9.7695   -9.7923   33.5921 H   0  0  0  0  0  0  0  0  0  0  0  0
   -8.5088  -14.4812   31.4638 H   0  0  0  0  0  0  0  0  0  0  0  0
   -9.6268  -16.3031   33.3317 H   0  0  0  0  0  0  0  0  0  0  0  0
  -10.5250  -15.0504   33.9764 H   0  0  0  0  0  0  0  0  0  0  0  0
  -10.8193  -15.3836   32.3848 H   0  0  0  0  0  0  0  0  0  0  0  0
   -7.4719  -16.2704   34.0931 H   0  0  0  0  0  0  0  0  0  0  0  0
   -6.2549  -16.1510   32.8252 H   0  0  0  0  0  0  0  0  0  0  0  0
   -7.4710  -18.8602   33.4314 H   0  0  0  0  0  0  0  0  0  0  0  0
   -7.8718  -23.3205   28.6934 H   0  0  0  0  0  0  0  0  0  0  0  0
   -6.0475  -21.5052   27.4874 H   0  0  0  0  0  0  0  0  0  0  0  0
   -5.2981  -23.4064   27.1345 H   0  0  0  0  0  0  0  0  0  0  0  0
   -3.9334  -24.0927   28.1213 H   0  0  0  0  0  0  0  0  0  0  0  0
   -3.3940  -24.1670   30.4511 H   0  0  0  0  0  0  0  0  0  0  0  0
  1  2  1  0
  2  3  1  0
  3  4  1  0
  4  5  1  0
  5  6  2  0
  6  7  1  0
  7  8  1  0
  8  9  1  0
  8 10  1  0
 10 11  1  0
 11 12  1  0
 12 13  2  0
 12 14  1  0
 14 15  2  0
 15 16  1  0
 16 17  2  0
 17 18  1  0
 18 19  1  0
 19 20  2  0
 20 21  1  0
 21 22  2  0
  7 23  1  0
 23 24  2  0
 24  5  1  0
 22 14  1  0
 22 18  1  0
  1 25  1  0
  1 26  1  0
  1 27  1  0
  3 28  1  0
  3 29  1  0
  4 30  1  0
  4 31  1  0
  6 32  1  0
  8 33  1  0
  9 34  1  0
  9 35  1  0
  9 36  1  0
 10 37  1  0
 10 38  1  0
 11 39  1  0
 15 40  1  0
 16 41  1  0
 17 42  1  0
 19 43  1  0
 20 44  1  0
M  END
>  <Energy>  (619) 
3106.5619320535156

>  <compound_id>  (619) 
76545

>  <target_id>  (619) 
1

>  <reference_id>  (619) 
7

>  <inspiration_ids>  (619) 
[7, 45]

>  <energy_score>  (619) 
3042.2978371108493

>  <distance_score>  (619) 
8.972566080316602

>  <path>  (619) 
/opt/xchem-fragalysis-2/maxwin/BulkDock/SCRATCH/511022/C76545-P7/C76545-P7.minimised.mol

>  <scratch_subdir>  (619) 
/opt/xchem-fragalysis-2/maxwin/BulkDock/SCRATCH/511022/C76545-P7

>  <fragmenstein_runtime>  (619) 
27.5527606010437

>  <fragmenstein_outcome>  (619) 
too moved

>  <fragmenstein_mode>  (619) 
expansion

>  <fragmenstein_error>  (619) 


$$$$
C76545-P45
     RDKit          3D

 44 46  0  0  0  0  0  0  0  0999 V2000
  -12.4568   -3.7374   37.0212 C   0  0  0  0  0  0  0  0  0  0  0  0
  -11.6083   -4.3631   36.0790 O   0  0  0  0  0  0  0  0  0  0  0  0
  -12.1758   -5.3281   35.1582 C   0  0  0  0  0  0  0  0  0  0  0  0
  -11.0529   -6.3915   34.7376 C   0  0  0  0  0  0  0  0  0  0  0  0
  -10.2642   -7.5147   33.5313 C   0  0  0  0  0  0  0  0  0  0  0  0
  -10.5387   -9.3554   33.3948 C   0  0  0  0  0  0  0  0  0  0  0  0
   -9.3864  -10.5259   32.4343 N   0  0  0  0  0  0  0  0  0  0  0  0
   -8.7488  -12.3127   33.1621 C   0  0  0  0  0  0  0  0  0  0  0  0
   -8.5454  -11.3859   34.7753 C   0  0  0  0  0  0  0  0  0  0  0  0
   -7.9659  -14.3968   32.8453 C   0  0  0  0  0  0  0  0  0  0  0  0
   -8.6169  -16.1032   31.9912 N   0  0  0  0  0  0  0  0  0  0  0  0
   -7.5979  -17.6594   30.8771 C   0  0  0  0  0  0  0  0  0  0  0  0
   -6.4286  -17.4821   30.9621 O   0  0  0  0  0  0  0  0  0  0  0  0
   -7.9450  -19.2337   29.2448 C   0  0  0  0  0  0  0  0  0  0  0  0
   -9.0794  -19.8931   28.3269 C   0  0  0  0  0  0  0  0  0  0  0  0
  -10.1504  -21.4138   28.7597 C   0  0  0  0  0  0  0  0  0  0  0  0
   -9.5700  -22.5693   28.3899 C   0  0  0  0  0  0  0  0  0  0  0  0
   -8.1905  -22.3844   28.0869 N   0  0  0  0  0  0  0  0  0  0  0  0
   -7.3365  -23.4036   27.7925 C   0  0  0  0  0  0  0  0  0  0  0  0
   -6.1340  -22.8367   27.6112 C   0  0  0  0  0  0  0  0  0  0  0  0
   -6.2055  -21.4557   27.6802 N   0  0  0  0  0  0  0  0  0  0  0  0
   -7.4251  -20.8696   28.0893 C   0  0  0  0  0  0  0  0  0  0  0  0
   -9.7187   -8.9208   33.1704 N   0  0  0  0  0  0  0  0  0  0  0  0
   -9.1982   -7.6264   33.0149 N   0  0  0  0  0  0  0  0  0  0  0  0
  -13.5162   -3.9116   36.8374 H   0  0  0  0  0  0  0  0  0  0  0  0
  -12.2390   -2.6665   37.0275 H   0  0  0  0  0  0  0  0  0  0  0  0
  -12.2195   -4.0930   38.0273 H   0  0  0  0  0  0  0  0  0  0  0  0
  -12.5336   -4.6877   34.3709 H   0  0  0  0  0  0  0  0  0  0  0  0
  -13.0963   -5.7855   35.5028 H   0  0  0  0  0  0  0  0  0  0  0  0
  -10.2071   -5.8454   35.0568 H   0  0  0  0  0  0  0  0  0  0  0  0
  -11.3999   -6.2507   33.7830 H   0  0  0  0  0  0  0  0  0  0  0  0
  -11.3225   -9.8844   33.9388 H   0  0  0  0  0  0  0  0  0  0  0  0
   -7.9860  -11.7626   32.5011 H   0  0  0  0  0  0  0  0  0  0  0  0
   -9.2946  -11.4688   35.5370 H   0  0  0  0  0  0  0  0  0  0  0  0
   -7.6090  -11.0240   35.2450 H   0  0  0  0  0  0  0  0  0  0  0  0
   -9.0288  -10.4836   34.6673 H   0  0  0  0  0  0  0  0  0  0  0  0
   -7.2941  -14.8652   33.6025 H   0  0  0  0  0  0  0  0  0  0  0  0
   -7.3648  -14.1628   31.9570 H   0  0  0  0  0  0  0  0  0  0  0  0
   -9.6123  -16.2978   31.9982 H   0  0  0  0  0  0  0  0  0  0  0  0
   -9.3443  -20.6503   27.5281 H   0  0  0  0  0  0  0  0  0  0  0  0
  -11.1896  -21.3513   29.0772 H   0  0  0  0  0  0  0  0  0  0  0  0
  -10.0040  -23.5601   28.3923 H   0  0  0  0  0  0  0  0  0  0  0  0
   -7.6560  -24.4350   27.7741 H   0  0  0  0  0  0  0  0  0  0  0  0
   -5.2027  -23.3493   27.4296 H   0  0  0  0  0  0  0  0  0  0  0  0
  1  2  1  0
  2  3  1  0
  3  4  1  0
  4  5  1  0
  5  6  2  0
  6  7  1  0
  7  8  1  0
  8  9  1  0
  8 10  1  0
 10 11  1  0
 11 12  1  0
 12 13  2  0
 12 14  1  0
 14 15  2  0
 15 16  1  0
 16 17  2  0
 17 18  1  0
 18 19  1  0
 19 20  2  0
 20 21  1  0
 21 22  2  0
  7 23  1  0
 23 24  2  0
 24  5  1  0
 22 14  1  0
 22 18  1  0
  1 25  1  0
  1 26  1  0
  1 27  1  0
  3 28  1  0
  3 29  1  0
  4 30  1  0
  4 31  1  0
  6 32  1  0
  8 33  1  0
  9 34  1  0
  9 35  1  0
  9 36  1  0
 10 37  1  0
 10 38  1  0
 11 39  1  0
 15 40  1  0
 16 41  1  0
 17 42  1  0
 19 43  1  0
 20 44  1  0
M  END
>  <Energy>  (620) 
2171.1586040138568

>  <compound_id>  (620) 
76545

>  <target_id>  (620) 
1

>  <reference_id>  (620) 
45

>  <inspiration_ids>  (620) 
[7, 45]

>  <energy_score>  (620) 
2106.8945090711936

>  <distance_score>  (620) 
7.958883336173074

>  <path>  (620) 
/opt/xchem-fragalysis-2/maxwin/BulkDock/SCRATCH/511022/C76545-P45/C76545-P45.minimised.mol

>  <scratch_subdir>  (620) 
/opt/xchem-fragalysis-2/maxwin/BulkDock/SCRATCH/511022/C76545-P45

>  <fragmenstein_runtime>  (620) 
16.036946535110474

>  <fragmenstein_outcome>  (620) 
too moved

>  <fragmenstein_mode>  (620) 
expansion

>  <fragmenstein_error>  (620) 


$$$$
C76554-P7
     RDKit          3D

 45 48  0  0  0  0  0  0  0  0999 V2000
  -10.7317   -4.4011   37.2491 C   0  0  0  0  0  0  0  0  0  0  0  0
   -9.9952   -5.5293   36.1967 O   0  0  0  0  0  0  0  0  0  0  0  0
  -10.7639   -6.2459   34.7599 C   0  0  0  0  0  0  0  0  0  0  0  0
  -11.4550   -4.5328   34.9857 C   0  0  0  0  0  0  0  0  0  0  0  0
  -10.2222   -7.5317   33.2401 C   0  0  0  0  0  0  0  0  0  0  0  0
  -10.6330   -7.6379   31.8662 N   0  0  0  0  0  0  0  0  0  0  0  0
  -10.6990   -9.1051   30.8590 S   0  0  0  0  0  0  0  0  0  0  0  0
   -9.6669  -10.6615   32.2087 C   0  0  0  0  0  0  0  0  0  0  0  0
   -9.6512  -12.5824   32.6330 N   0  0  0  0  0  0  0  0  0  0  0  0
  -10.5103  -14.3322   33.2205 C   0  0  0  0  0  0  0  0  0  0  0  0
  -12.1301  -14.7266   32.7676 C   0  0  0  0  0  0  0  0  0  0  0  0
  -12.9219  -15.4964   31.3513 C   0  0  0  0  0  0  0  0  0  0  0  0
  -12.6659  -16.2627   30.0514 C   0  0  0  0  0  0  0  0  0  0  0  0
  -11.5048  -16.2113   30.7892 C   0  0  0  0  0  0  0  0  0  0  0  0
  -10.6221  -15.4603   32.3391 C   0  0  0  0  0  0  0  0  0  0  0  0
  -11.0866  -17.7466   29.7276 N   0  0  0  0  0  0  0  0  0  0  0  0
  -11.7202  -18.5512   28.9439 C   0  0  0  0  0  0  0  0  0  0  0  0
  -12.7570  -17.9159   29.1289 N   0  0  0  0  0  0  0  0  0  0  0  0
  -14.3414  -19.1930   29.1630 C   0  0  0  0  0  0  0  0  0  0  0  0
  -14.4460  -20.8313   28.8932 C   0  0  0  0  0  0  0  0  0  0  0  0
  -13.6831  -21.6745   27.8869 C   0  0  0  0  0  0  0  0  0  0  0  0
  -12.1965  -21.5525   28.0586 C   0  0  0  0  0  0  0  0  0  0  0  0
  -11.7958  -20.5221   29.1351 C   0  0  0  0  0  0  0  0  0  0  0  0
  -10.0457   -9.3306   33.1880 N   0  0  0  0  0  0  0  0  0  0  0  0
  -10.5375   -4.6602   38.2984 H   0  0  0  0  0  0  0  0  0  0  0  0
  -11.8048   -4.2278   37.2122 H   0  0  0  0  0  0  0  0  0  0  0  0
  -10.2517   -3.4288   37.0752 H   0  0  0  0  0  0  0  0  0  0  0  0
  -11.4060   -6.8919   35.2915 H   0  0  0  0  0  0  0  0  0  0  0  0
  -10.8527   -3.7287   35.4002 H   0  0  0  0  0  0  0  0  0  0  0  0
  -12.2537   -4.6878   35.6973 H   0  0  0  0  0  0  0  0  0  0  0  0
  -11.6927   -3.7982   34.1868 H   0  0  0  0  0  0  0  0  0  0  0  0
   -8.9414  -12.5900   33.3740 H   0  0  0  0  0  0  0  0  0  0  0  0
  -12.7044  -15.1667   33.6267 H   0  0  0  0  0  0  0  0  0  0  0  0
  -13.1860  -14.5528   30.8239 H   0  0  0  0  0  0  0  0  0  0  0  0
   -9.7546  -16.0778   32.7076 H   0  0  0  0  0  0  0  0  0  0  0  0
  -15.0740  -19.1721   29.9958 H   0  0  0  0  0  0  0  0  0  0  0  0
  -15.0550  -18.6130   28.5070 H   0  0  0  0  0  0  0  0  0  0  0  0
  -14.3923  -21.3559   29.8567 H   0  0  0  0  0  0  0  0  0  0  0  0
  -15.5070  -20.9615   28.6241 H   0  0  0  0  0  0  0  0  0  0  0  0
  -13.9736  -22.7251   28.0246 H   0  0  0  0  0  0  0  0  0  0  0  0
  -13.9862  -21.4543   26.8567 H   0  0  0  0  0  0  0  0  0  0  0  0
  -11.8322  -22.5259   28.4195 H   0  0  0  0  0  0  0  0  0  0  0  0
  -11.7184  -21.4528   27.0839 H   0  0  0  0  0  0  0  0  0  0  0  0
  -12.3023  -20.8279   30.0506 H   0  0  0  0  0  0  0  0  0  0  0  0
  -10.7591  -20.7877   29.4049 H   0  0  0  0  0  0  0  0  0  0  0  0
  1  2  1  0
  2  3  1  0
  3  4  1  0
  3  5  1  0
  5  6  2  0
  6  7  1  0
  7  8  1  0
  8  9  1  0
  9 10  1  0
 10 11  2  0
 11 12  1  0
 12 13  2  0
 13 14  1  0
 14 15  2  0
 14 16  1  0
 16 17  2  0
 17 18  1  0
 18 19  1  0
 19 20  1  0
 20 21  1  0
 21 22  1  0
 22 23  1  0
  8 24  2  0
 24  5  1  0
 15 10  1  0
 23 17  1  0
 18 13  1  0
  1 25  1  0
  1 26  1  0
  1 27  1  0
  3 28  1  0
  4 29  1  0
  4 30  1  0
  4 31  1  0
  9 32  1  0
 11 33  1  0
 12 34  1  0
 15 35  1  0
 19 36  1  0
 19 37  1  0
 20 38  1  0
 20 39  1  0
 21 40  1  0
 21 41  1  0
 22 42  1  0
 22 43  1  0
 23 44  1  0
 23 45  1  0
M  END
>  <Energy>  (621) 
1797.7968550206676

>  <compound_id>  (621) 
76554

>  <target_id>  (621) 
1

>  <reference_id>  (621) 
7

>  <inspiration_ids>  (621) 
[7, 45]

>  <energy_score>  (621) 
1670.3283188317346

>  <distance_score>  (621) 
10.189386373820827

>  <path>  (621) 
/opt/xchem-fragalysis-2/maxwin/BulkDock/SCRATCH/511022/C76554-P7/C76554-P7.minimised.mol

>  <scratch_subdir>  (621) 
/opt/xchem-fragalysis-2/maxwin/BulkDock/SCRATCH/511022/C76554-P7

>  <fragmenstein_runtime>  (621) 
21.74972939491272

>  <fragmenstein_outcome>  (621) 
too moved

>  <fragmenstein_mode>  (621) 
expansion

>  <fragmenstein_error>  (621) 


$$$$
C76554-P45
     RDKit          3D

 45 48  0  0  0  0  0  0  0  0999 V2000
  -11.3383   -4.5787   35.7540 C   0  0  0  0  0  0  0  0  0  0  0  0
  -10.4567   -5.8970   35.1243 O   0  0  0  0  0  0  0  0  0  0  0  0
  -10.6156   -7.0811   33.6885 C   0  0  0  0  0  0  0  0  0  0  0  0
  -12.2723   -6.1697   34.3837 C   0  0  0  0  0  0  0  0  0  0  0  0
  -10.1011   -9.1272   33.3143 C   0  0  0  0  0  0  0  0  0  0  0  0
  -10.3856   -9.4147   32.0825 N   0  0  0  0  0  0  0  0  0  0  0  0
   -9.4602  -10.7595   31.7487 S   0  0  0  0  0  0  0  0  0  0  0  0
   -9.0725  -12.5812   33.0654 C   0  0  0  0  0  0  0  0  0  0  0  0
   -8.9311  -14.4893   32.4902 N   0  0  0  0  0  0  0  0  0  0  0  0
   -8.5060  -16.4727   32.7828 C   0  0  0  0  0  0  0  0  0  0  0  0
   -7.7595  -17.5454   31.2493 C   0  0  0  0  0  0  0  0  0  0  0  0
   -8.5703  -17.7935   29.3640 C   0  0  0  0  0  0  0  0  0  0  0  0
  -10.5344  -18.4397   29.6940 C   0  0  0  0  0  0  0  0  0  0  0  0
  -10.3173  -19.2073   31.6738 C   0  0  0  0  0  0  0  0  0  0  0  0
   -9.8148  -17.9334   33.1470 C   0  0  0  0  0  0  0  0  0  0  0  0
  -10.8243  -20.5065   31.9668 N   0  0  0  0  0  0  0  0  0  0  0  0
  -11.2021  -21.0717   30.8464 C   0  0  0  0  0  0  0  0  0  0  0  0
  -10.6098  -20.4113   29.6816 N   0  0  0  0  0  0  0  0  0  0  0  0
  -10.5282  -21.4708   28.5683 C   0  0  0  0  0  0  0  0  0  0  0  0
  -11.8352  -21.9481   27.9529 C   0  0  0  0  0  0  0  0  0  0  0  0
  -12.1198  -23.3523   28.4097 C   0  0  0  0  0  0  0  0  0  0  0  0
  -11.9806  -23.4862   29.9202 C   0  0  0  0  0  0  0  0  0  0  0  0
  -12.1864  -22.2500   30.8065 C   0  0  0  0  0  0  0  0  0  0  0  0
   -8.9778  -10.7772   32.8189 N   0  0  0  0  0  0  0  0  0  0  0  0
  -12.2617   -4.8372   36.2639 H   0  0  0  0  0  0  0  0  0  0  0  0
  -11.5404   -3.8044   34.9977 H   0  0  0  0  0  0  0  0  0  0  0  0
  -10.7235   -4.0765   36.4897 H   0  0  0  0  0  0  0  0  0  0  0  0
  -11.2334   -7.5227   34.3517 H   0  0  0  0  0  0  0  0  0  0  0  0
  -13.3693   -6.3753   34.1912 H   0  0  0  0  0  0  0  0  0  0  0  0
  -12.5002   -5.1250   34.2298 H   0  0  0  0  0  0  0  0  0  0  0  0
  -12.3672   -6.4760   35.3973 H   0  0  0  0  0  0  0  0  0  0  0  0
   -9.5095  -14.7507   33.3154 H   0  0  0  0  0  0  0  0  0  0  0  0
   -6.6775  -17.6070   31.3696 H   0  0  0  0  0  0  0  0  0  0  0  0
   -8.1079  -18.3338   28.5397 H   0  0  0  0  0  0  0  0  0  0  0  0
   -9.5040  -18.6130   33.9592 H   0  0  0  0  0  0  0  0  0  0  0  0
   -9.7775  -21.1581   27.8716 H   0  0  0  0  0  0  0  0  0  0  0  0
  -10.0488  -22.3420   28.9755 H   0  0  0  0  0  0  0  0  0  0  0  0
  -11.7903  -21.9315   26.8604 H   0  0  0  0  0  0  0  0  0  0  0  0
  -12.6719  -21.3241   28.2635 H   0  0  0  0  0  0  0  0  0  0  0  0
  -11.4498  -24.0671   27.9162 H   0  0  0  0  0  0  0  0  0  0  0  0
  -13.1364  -23.6246   28.0987 H   0  0  0  0  0  0  0  0  0  0  0  0
  -11.0446  -23.9917   30.1796 H   0  0  0  0  0  0  0  0  0  0  0  0
  -12.8016  -24.1628   30.1540 H   0  0  0  0  0  0  0  0  0  0  0  0
  -13.1812  -21.8545   30.5804 H   0  0  0  0  0  0  0  0  0  0  0  0
  -12.2545  -22.6146   31.8413 H   0  0  0  0  0  0  0  0  0  0  0  0
  1  2  1  0
  2  3  1  0
  3  4  1  0
  3  5  1  0
  5  6  2  0
  6  7  1  0
  7  8  1  0
  8  9  1  0
  9 10  1  0
 10 11  2  0
 11 12  1  0
 12 13  2  0
 13 14  1  0
 14 15  2  0
 14 16  1  0
 16 17  2  0
 17 18  1  0
 18 19  1  0
 19 20  1  0
 20 21  1  0
 21 22  1  0
 22 23  1  0
  8 24  2  0
 24  5  1  0
 15 10  1  0
 23 17  1  0
 18 13  1  0
  1 25  1  0
  1 26  1  0
  1 27  1  0
  3 28  1  0
  4 29  1  0
  4 30  1  0
  4 31  1  0
  9 32  1  0
 11 33  1  0
 12 34  1  0
 15 35  1  0
 19 36  1  0
 19 37  1  0
 20 38  1  0
 20 39  1  0
 21 40  1  0
 21 41  1  0
 22 42  1  0
 22 43  1  0
 23 44  1  0
 23 45  1  0
M  END
>  <Energy>  (622) 
2595.9302402132967

>  <compound_id>  (622) 
76554

>  <target_id>  (622) 
1

>  <reference_id>  (622) 
45

>  <inspiration_ids>  (622) 
[7, 45]

>  <energy_score>  (622) 
2468.461704024348

>  <distance_score>  (622) 
9.55611256805381

>  <path>  (622) 
/opt/xchem-fragalysis-2/maxwin/BulkDock/SCRATCH/511022/C76554-P45/C76554-P45.minimised.mol

>  <scratch_subdir>  (622) 
/opt/xchem-fragalysis-2/maxwin/BulkDock/SCRATCH/511022/C76554-P45

>  <fragmenstein_runtime>  (622) 
14.50870132446289

>  <fragmenstein_outcome>  (622) 
too moved

>  <fragmenstein_mode>  (622) 
expansion

>  <fragmenstein_error>  (622) 


$$$$
C76564-P7
     RDKit          3D

 41 43  0  0  0  0  0  0  0  0999 V2000
  -10.7660   -4.4518   37.1705 C   0  0  0  0  0  0  0  0  0  0  0  0
  -10.1076   -5.7058   36.1369 O   0  0  0  0  0  0  0  0  0  0  0  0
  -10.8058   -6.6194   34.6197 C   0  0  0  0  0  0  0  0  0  0  0  0
  -11.5166   -4.9593   35.0217 C   0  0  0  0  0  0  0  0  0  0  0  0
  -10.3596   -8.1010   33.1750 C   0  0  0  0  0  0  0  0  0  0  0  0
   -9.0816   -8.0101   33.1096 N   0  0  0  0  0  0  0  0  0  0  0  0
   -9.6680   -9.7662   33.1324 O   0  0  0  0  0  0  0  0  0  0  0  0
   -9.1554  -11.5356   32.4719 C   0  0  0  0  0  0  0  0  0  0  0  0
   -9.2081  -13.8322   32.5869 C   0  0  0  0  0  0  0  0  0  0  0  0
   -8.4882  -15.9007   32.2093 N   0  0  0  0  0  0  0  0  0  0  0  0
   -7.3953  -14.5510   31.4395 C   0  0  0  0  0  0  0  0  0  0  0  0
   -7.7874  -17.8053   31.0268 C   0  0  0  0  0  0  0  0  0  0  0  0
   -7.9771  -19.0025   28.9805 C   0  0  0  0  0  0  0  0  0  0  0  0
   -7.5513  -20.4784   27.9026 C   0  0  0  0  0  0  0  0  0  0  0  0
   -7.8414  -22.4115   28.2197 C   0  0  0  0  0  0  0  0  0  0  0  0
   -8.8022  -22.9691   27.6170 C   0  0  0  0  0  0  0  0  0  0  0  0
   -7.7454  -22.1679   26.9223 C   0  0  0  0  0  0  0  0  0  0  0  0
   -6.8267  -22.9826   26.2986 N   0  0  0  0  0  0  0  0  0  0  0  0
   -5.6822  -22.6707   26.8318 C   0  0  0  0  0  0  0  0  0  0  0  0
   -5.6787  -21.3855   27.3291 C   0  0  0  0  0  0  0  0  0  0  0  0
   -7.2452  -20.3287   27.5211 N   0  0  0  0  0  0  0  0  0  0  0  0
  -10.2635  -10.0279   32.5113 N   0  0  0  0  0  0  0  0  0  0  0  0
  -10.5765   -4.6781   38.2261 H   0  0  0  0  0  0  0  0  0  0  0  0
  -11.8304   -4.2004   37.1085 H   0  0  0  0  0  0  0  0  0  0  0  0
  -10.2339   -3.5263   36.9115 H   0  0  0  0  0  0  0  0  0  0  0  0
   -9.7860   -6.4087   34.3014 H   0  0  0  0  0  0  0  0  0  0  0  0
  -12.3000   -5.0884   35.7587 H   0  0  0  0  0  0  0  0  0  0  0  0
  -10.8836   -4.1591   35.3484 H   0  0  0  0  0  0  0  0  0  0  0  0
  -11.7163   -4.0694   34.3693 H   0  0  0  0  0  0  0  0  0  0  0  0
   -8.2063  -13.5532   33.0175 H   0  0  0  0  0  0  0  0  0  0  0  0
  -10.0748  -14.1615   33.1749 H   0  0  0  0  0  0  0  0  0  0  0  0
   -6.4677  -14.9031   30.9345 H   0  0  0  0  0  0  0  0  0  0  0  0
   -7.1059  -13.5987   31.8530 H   0  0  0  0  0  0  0  0  0  0  0  0
   -8.0963  -14.2586   30.6970 H   0  0  0  0  0  0  0  0  0  0  0  0
   -6.6521  -17.6429   31.0237 H   0  0  0  0  0  0  0  0  0  0  0  0
   -7.4143  -18.2243   32.0067 H   0  0  0  0  0  0  0  0  0  0  0  0
   -7.0003  -21.7442   28.3559 H   0  0  0  0  0  0  0  0  0  0  0  0
   -7.1135  -23.2720   28.4998 H   0  0  0  0  0  0  0  0  0  0  0  0
   -9.2977  -23.8870   27.3669 H   0  0  0  0  0  0  0  0  0  0  0  0
   -4.9545  -23.3998   27.1373 H   0  0  0  0  0  0  0  0  0  0  0  0
   -5.2641  -21.5879   28.2640 H   0  0  0  0  0  0  0  0  0  0  0  0
  1  2  1  0
  2  3  1  0
  3  4  1  0
  3  5  1  0
  5  6  2  0
  6  7  1  0
  7  8  1  0
  8  9  1  0
  9 10  1  0
 10 11  1  0
 10 12  1  0
 12 13  1  0
 13 14  2  0
 14 15  1  0
 15 16  2  0
 16 17  1  0
 17 18  2  0
 18 19  1  0
 19 20  2  0
 20 21  1  0
  8 22  2  0
 22  5  1  0
 21 13  1  0
 21 17  1  0
  1 23  1  0
  1 24  1  0
  1 25  1  0
  3 26  1  0
  4 27  1  0
  4 28  1  0
  4 29  1  0
  9 30  1  0
  9 31  1  0
 11 32  1  0
 11 33  1  0
 11 34  1  0
 12 35  1  0
 12 36  1  0
 14 37  1  0
 15 38  1  0
 16 39  1  0
 19 40  1  0
 20 41  1  0
M  END
>  <Energy>  (623) 
4377.963933185436

>  <compound_id>  (623) 
76564

>  <target_id>  (623) 
1

>  <reference_id>  (623) 
7

>  <inspiration_ids>  (623) 
[7, 45]

>  <energy_score>  (623) 
4245.3190629458095

>  <distance_score>  (623) 
7.7748214684394865

>  <path>  (623) 
/opt/xchem-fragalysis-2/maxwin/BulkDock/SCRATCH/511022/C76564-P7/C76564-P7.minimised.mol

>  <scratch_subdir>  (623) 
/opt/xchem-fragalysis-2/maxwin/BulkDock/SCRATCH/511022/C76564-P7

>  <fragmenstein_runtime>  (623) 
12.806916236877441

>  <fragmenstein_outcome>  (623) 
too moved

>  <fragmenstein_mode>  (623) 
expansion

>  <fragmenstein_error>  (623) 


$$$$
C76564-P45
     RDKit          3D

 41 43  0  0  0  0  0  0  0  0999 V2000
  -11.3839   -4.6286   35.6093 C   0  0  0  0  0  0  0  0  0  0  0  0
  -10.1484   -5.8227   35.0913 O   0  0  0  0  0  0  0  0  0  0  0  0
  -10.0317   -7.0869   33.6647 C   0  0  0  0  0  0  0  0  0  0  0  0
  -11.3077   -6.7736   34.5400 C   0  0  0  0  0  0  0  0  0  0  0  0
   -9.8786   -9.0503   33.2413 C   0  0  0  0  0  0  0  0  0  0  0  0
  -10.8781   -9.7509   33.0928 N   0  0  0  0  0  0  0  0  0  0  0  0
   -9.9623  -10.8824   31.8687 O   0  0  0  0  0  0  0  0  0  0  0  0
   -9.3507  -12.3557   32.7577 C   0  0  0  0  0  0  0  0  0  0  0  0
   -9.5096  -14.3667   31.9258 C   0  0  0  0  0  0  0  0  0  0  0  0
  -11.0237  -15.7293   31.1086 N   0  0  0  0  0  0  0  0  0  0  0  0
  -10.3092  -16.0737   32.9438 C   0  0  0  0  0  0  0  0  0  0  0  0
  -10.9302  -17.6237   29.8731 C   0  0  0  0  0  0  0  0  0  0  0  0
  -10.5529  -19.6127   31.0715 C   0  0  0  0  0  0  0  0  0  0  0  0
  -10.5263  -19.7859   32.5016 C   0  0  0  0  0  0  0  0  0  0  0  0
  -11.2831  -20.8208   33.1900 C   0  0  0  0  0  0  0  0  0  0  0  0
  -11.6293  -21.9963   32.6718 C   0  0  0  0  0  0  0  0  0  0  0  0
  -11.4332  -22.2098   31.3081 C   0  0  0  0  0  0  0  0  0  0  0  0
  -11.5702  -23.3255   30.6253 N   0  0  0  0  0  0  0  0  0  0  0  0
  -11.7611  -22.9138   29.3525 C   0  0  0  0  0  0  0  0  0  0  0  0
  -11.7332  -21.5402   29.3033 C   0  0  0  0  0  0  0  0  0  0  0  0
  -11.1664  -21.0851   30.4910 N   0  0  0  0  0  0  0  0  0  0  0  0
   -8.8764  -10.7156   32.6931 N   0  0  0  0  0  0  0  0  0  0  0  0
  -10.9181   -4.0913   36.4337 H   0  0  0  0  0  0  0  0  0  0  0  0
  -12.3300   -5.0614   35.9248 H   0  0  0  0  0  0  0  0  0  0  0  0
  -11.6005   -3.9179   34.8039 H   0  0  0  0  0  0  0  0  0  0  0  0
   -8.9562   -6.9384   33.7731 H   0  0  0  0  0  0  0  0  0  0  0  0
  -11.5742   -6.6335   35.5534 H   0  0  0  0  0  0  0  0  0  0  0  0
  -11.8180   -7.6459   34.9101 H   0  0  0  0  0  0  0  0  0  0  0  0
  -11.8917   -5.9105   34.2221 H   0  0  0  0  0  0  0  0  0  0  0  0
   -9.8499  -14.3550   32.9512 H   0  0  0  0  0  0  0  0  0  0  0  0
   -8.4973  -14.7897   31.9951 H   0  0  0  0  0  0  0  0  0  0  0  0
   -9.2156  -16.0843   33.0404 H   0  0  0  0  0  0  0  0  0  0  0  0
  -10.9573  -15.4418   33.5865 H   0  0  0  0  0  0  0  0  0  0  0  0
  -10.5036  -17.0478   33.4670 H   0  0  0  0  0  0  0  0  0  0  0  0
  -11.4496  -17.8589   28.8736 H   0  0  0  0  0  0  0  0  0  0  0  0
  -12.1514  -17.2321   29.8056 H   0  0  0  0  0  0  0  0  0  0  0  0
  -10.2365  -19.0069   33.1984 H   0  0  0  0  0  0  0  0  0  0  0  0
  -11.5596  -20.6023   34.2211 H   0  0  0  0  0  0  0  0  0  0  0  0
  -12.1422  -22.7499   33.2589 H   0  0  0  0  0  0  0  0  0  0  0  0
  -12.0421  -23.6034   28.5659 H   0  0  0  0  0  0  0  0  0  0  0  0
  -12.1434  -20.9328   28.5172 H   0  0  0  0  0  0  0  0  0  0  0  0
  1  2  1  0
  2  3  1  0
  3  4  1  0
  3  5  1  0
  5  6  2  0
  6  7  1  0
  7  8  1  0
  8  9  1  0
  9 10  1  0
 10 11  1  0
 10 12  1  0
 12 13  1  0
 13 14  2  0
 14 15  1  0
 15 16  2  0
 16 17  1  0
 17 18  2  0
 18 19  1  0
 19 20  2  0
 20 21  1  0
  8 22  2  0
 22  5  1  0
 21 13  1  0
 21 17  1  0
  1 23  1  0
  1 24  1  0
  1 25  1  0
  3 26  1  0
  4 27  1  0
  4 28  1  0
  4 29  1  0
  9 30  1  0
  9 31  1  0
 11 32  1  0
 11 33  1  0
 11 34  1  0
 12 35  1  0
 12 36  1  0
 14 37  1  0
 15 38  1  0
 16 39  1  0
 19 40  1  0
 20 41  1  0
M  END
>  <Energy>  (624) 
2076.8627922109258

>  <compound_id>  (624) 
76564

>  <target_id>  (624) 
1

>  <reference_id>  (624) 
45

>  <inspiration_ids>  (624) 
[7, 45]

>  <energy_score>  (624) 
1944.2179219712623

>  <distance_score>  (624) 
9.684874635160204

>  <path>  (624) 
/opt/xchem-fragalysis-2/maxwin/BulkDock/SCRATCH/511022/C76564-P45/C76564-P45.minimised.mol

>  <scratch_subdir>  (624) 
/opt/xchem-fragalysis-2/maxwin/BulkDock/SCRATCH/511022/C76564-P45

>  <fragmenstein_runtime>  (624) 
26.77687954902649

>  <fragmenstein_outcome>  (624) 
too moved

>  <fragmenstein_mode>  (624) 
expansion

>  <fragmenstein_error>  (624) 


$$$$
C52757-P7
     RDKit          3D

 42 44  0  0  0  0  0  0  0  0999 V2000
   -5.2685   -7.9752   30.2324 C   0  0  0  0  0  0  0  0  0  0  0  0
   -6.4313   -7.8589   31.0456 O   0  0  0  0  0  0  0  0  0  0  0  0
   -7.3370   -8.9654   30.8652 C   0  0  0  0  0  0  0  0  0  0  0  0
   -7.9866   -9.2646   32.1971 C   0  0  0  0  0  0  0  0  0  0  0  0
   -8.3122   -8.6506   29.7423 C   0  0  0  0  0  0  0  0  0  0  0  0
   -7.9232   -8.5498   28.4791 N   0  0  0  0  0  0  0  0  0  0  0  0
   -9.0070   -8.4604   27.6130 C   0  0  0  0  0  0  0  0  0  0  0  0
   -8.7377   -8.5754   26.1226 C   0  0  0  0  0  0  0  0  0  0  0  0
   -9.2483   -9.8593   25.4776 N   0  0  0  0  0  0  0  0  0  0  0  0
   -9.8961   -9.5091   24.2049 C   0  0  0  0  0  0  0  0  0  0  0  0
   -8.2030  -10.9312   25.2198 C   0  0  0  0  0  0  0  0  0  0  0  0
   -8.6700  -12.4295   25.0499 C   0  0  0  0  0  0  0  0  0  0  0  0
   -9.9647  -12.8277   25.0962 C   0  0  0  0  0  0  0  0  0  0  0  0
  -10.3568  -14.1920   24.7758 C   0  0  0  0  0  0  0  0  0  0  0  0
   -9.4550  -15.1076   24.3959 C   0  0  0  0  0  0  0  0  0  0  0  0
   -8.0759  -14.7758   24.4149 C   0  0  0  0  0  0  0  0  0  0  0  0
   -7.0241  -15.5026   24.1034 N   0  0  0  0  0  0  0  0  0  0  0  0
   -5.9481  -14.7118   24.3790 C   0  0  0  0  0  0  0  0  0  0  0  0
   -6.3456  -13.4542   24.7740 C   0  0  0  0  0  0  0  0  0  0  0  0
   -7.7230  -13.4649   24.7753 N   0  0  0  0  0  0  0  0  0  0  0  0
  -10.2161   -8.2619   28.2626 C   0  0  0  0  0  0  0  0  0  0  0  0
  -10.0150   -8.4435   29.9638 S   0  0  0  0  0  0  0  0  0  0  0  0
   -4.6685   -8.8321   30.5539 H   0  0  0  0  0  0  0  0  0  0  0  0
   -4.6709   -7.0687   30.3571 H   0  0  0  0  0  0  0  0  0  0  0  0
   -5.5210   -8.0691   29.1735 H   0  0  0  0  0  0  0  0  0  0  0  0
   -6.7459   -9.8402   30.5822 H   0  0  0  0  0  0  0  0  0  0  0  0
   -8.7373  -10.0502   32.1171 H   0  0  0  0  0  0  0  0  0  0  0  0
   -8.4492   -8.3727   32.6318 H   0  0  0  0  0  0  0  0  0  0  0  0
   -7.2219   -9.6171   32.8925 H   0  0  0  0  0  0  0  0  0  0  0  0
   -7.6644   -8.4698   25.9224 H   0  0  0  0  0  0  0  0  0  0  0  0
   -9.2197   -7.7033   25.6598 H   0  0  0  0  0  0  0  0  0  0  0  0
  -10.7462   -8.8408   24.3834 H   0  0  0  0  0  0  0  0  0  0  0  0
   -9.2017   -9.0112   23.5181 H   0  0  0  0  0  0  0  0  0  0  0  0
  -10.3021  -10.3889   23.6968 H   0  0  0  0  0  0  0  0  0  0  0  0
   -7.4632  -10.9071   26.0187 H   0  0  0  0  0  0  0  0  0  0  0  0
   -7.6447  -10.6560   24.3138 H   0  0  0  0  0  0  0  0  0  0  0  0
  -10.7663  -12.1267   25.3074 H   0  0  0  0  0  0  0  0  0  0  0  0
  -11.4181  -14.4183   24.7740 H   0  0  0  0  0  0  0  0  0  0  0  0
   -9.7590  -16.0904   24.0650 H   0  0  0  0  0  0  0  0  0  0  0  0
   -4.9375  -15.0779   24.2589 H   0  0  0  0  0  0  0  0  0  0  0  0
   -5.7799  -12.5784   25.0520 H   0  0  0  0  0  0  0  0  0  0  0  0
  -11.1943   -8.1259   27.8260 H   0  0  0  0  0  0  0  0  0  0  0  0
  1  2  1  0
  2  3  1  0
  3  4  1  0
  3  5  1  0
  5  6  2  0
  6  7  1  0
  7  8  1  0
  8  9  1  0
  9 10  1  0
  9 11  1  0
 11 12  1  0
 12 13  2  0
 13 14  1  0
 14 15  2  0
 15 16  1  0
 16 17  2  0
 17 18  1  0
 18 19  2  0
 19 20  1  0
  7 21  2  0
 21 22  1  0
 22  5  1  0
 20 12  1  0
 20 16  1  0
  1 23  1  0
  1 24  1  0
  1 25  1  0
  3 26  1  0
  4 27  1  0
  4 28  1  0
  4 29  1  0
  8 30  1  0
  8 31  1  0
 10 32  1  0
 10 33  1  0
 10 34  1  0
 11 35  1  0
 11 36  1  0
 13 37  1  0
 14 38  1  0
 15 39  1  0
 18 40  1  0
 19 41  1  0
 21 42  1  0
M  END
>  <Energy>  (625) 
82.131424571610054

>  <compound_id>  (625) 
52757

>  <target_id>  (625) 
1

>  <reference_id>  (625) 
7

>  <inspiration_ids>  (625) 
[7, 45]

>  <energy_score>  (625) 
-81.57956801763441

>  <distance_score>  (625) 
12.918671305166036

>  <path>  (625) 
/opt/xchem-fragalysis-2/maxwin/BulkDock/SCRATCH/511022/C52757-P7/C52757-P7.minimised.mol

>  <scratch_subdir>  (625) 
/opt/xchem-fragalysis-2/maxwin/BulkDock/SCRATCH/511022/C52757-P7

>  <fragmenstein_runtime>  (625) 
24.465739965438843

>  <fragmenstein_outcome>  (625) 
too moved

>  <fragmenstein_mode>  (625) 
expansion

>  <fragmenstein_error>  (625) 


$$$$
C52757-P45
     RDKit          3D

 42 44  0  0  0  0  0  0  0  0999 V2000
  -12.0915  -10.7997   24.9657 C   0  0  0  0  0  0  0  0  0  0  0  0
  -10.7183  -11.1287   24.8042 O   0  0  0  0  0  0  0  0  0  0  0  0
  -10.4979  -12.5430   24.7155 C   0  0  0  0  0  0  0  0  0  0  0  0
  -10.5014  -12.9815   23.2556 C   0  0  0  0  0  0  0  0  0  0  0  0
   -9.1866  -12.8727   25.3906 C   0  0  0  0  0  0  0  0  0  0  0  0
   -9.0400  -13.8899   26.2169 N   0  0  0  0  0  0  0  0  0  0  0  0
   -7.7124  -14.0351   26.6491 C   0  0  0  0  0  0  0  0  0  0  0  0
   -7.3833  -15.0899   27.8809 C   0  0  0  0  0  0  0  0  0  0  0  0
   -7.3309  -17.0288   27.9768 N   0  0  0  0  0  0  0  0  0  0  0  0
   -8.4823  -16.6862   27.0114 C   0  0  0  0  0  0  0  0  0  0  0  0
   -5.7314  -18.2847   27.5297 C   0  0  0  0  0  0  0  0  0  0  0  0
   -5.6914  -20.3454   27.0481 C   0  0  0  0  0  0  0  0  0  0  0  0
   -5.0017  -21.2147   26.0648 C   0  0  0  0  0  0  0  0  0  0  0  0
   -5.8176  -22.8897   25.7362 C   0  0  0  0  0  0  0  0  0  0  0  0
   -6.9268  -23.4026   26.2300 C   0  0  0  0  0  0  0  0  0  0  0  0
   -7.4154  -22.6386   27.2987 C   0  0  0  0  0  0  0  0  0  0  0  0
   -8.0357  -23.2435   28.2638 N   0  0  0  0  0  0  0  0  0  0  0  0
   -6.8994  -23.7512   28.7367 C   0  0  0  0  0  0  0  0  0  0  0  0
   -5.8403  -22.8981   28.4375 C   0  0  0  0  0  0  0  0  0  0  0  0
   -6.4775  -21.7043   27.8247 N   0  0  0  0  0  0  0  0  0  0  0  0
   -6.9039  -13.0087   26.1760 C   0  0  0  0  0  0  0  0  0  0  0  0
   -7.7587  -11.9587   25.1187 S   0  0  0  0  0  0  0  0  0  0  0  0
  -12.6841  -11.1770   24.1274 H   0  0  0  0  0  0  0  0  0  0  0  0
  -12.1818   -9.7106   24.9942 H   0  0  0  0  0  0  0  0  0  0  0  0
  -12.4718  -11.2033   25.9093 H   0  0  0  0  0  0  0  0  0  0  0  0
  -11.2887  -13.0800   25.2568 H   0  0  0  0  0  0  0  0  0  0  0  0
  -10.2771  -14.0489   23.1584 H   0  0  0  0  0  0  0  0  0  0  0  0
   -9.7671  -12.4194   22.6676 H   0  0  0  0  0  0  0  0  0  0  0  0
  -11.4774  -12.7913   22.7974 H   0  0  0  0  0  0  0  0  0  0  0  0
   -6.6783  -14.5840   28.5482 H   0  0  0  0  0  0  0  0  0  0  0  0
   -8.2871  -14.7405   28.3429 H   0  0  0  0  0  0  0  0  0  0  0  0
   -9.0326  -17.6219   27.0127 H   0  0  0  0  0  0  0  0  0  0  0  0
   -8.0986  -16.1562   26.1078 H   0  0  0  0  0  0  0  0  0  0  0  0
   -9.3563  -16.0371   26.9250 H   0  0  0  0  0  0  0  0  0  0  0  0
   -5.5451  -18.0224   28.5621 H   0  0  0  0  0  0  0  0  0  0  0  0
   -6.5498  -19.3653   26.9698 H   0  0  0  0  0  0  0  0  0  0  0  0
   -4.5205  -20.7593   25.1901 H   0  0  0  0  0  0  0  0  0  0  0  0
   -5.4971  -23.4040   24.8153 H   0  0  0  0  0  0  0  0  0  0  0  0
   -7.3876  -24.3411   25.9630 H   0  0  0  0  0  0  0  0  0  0  0  0
   -6.9502  -24.6690   29.2496 H   0  0  0  0  0  0  0  0  0  0  0  0
   -4.7903  -23.0032   28.5596 H   0  0  0  0  0  0  0  0  0  0  0  0
   -5.8751  -12.7896   26.4049 H   0  0  0  0  0  0  0  0  0  0  0  0
  1  2  1  0
  2  3  1  0
  3  4  1  0
  3  5  1  0
  5  6  2  0
  6  7  1  0
  7  8  1  0
  8  9  1  0
  9 10  1  0
  9 11  1  0
 11 12  1  0
 12 13  2  0
 13 14  1  0
 14 15  2  0
 15 16  1  0
 16 17  2  0
 17 18  1  0
 18 19  2  0
 19 20  1  0
  7 21  2  0
 21 22  1  0
 22  5  1  0
 20 12  1  0
 20 16  1  0
  1 23  1  0
  1 24  1  0
  1 25  1  0
  3 26  1  0
  4 27  1  0
  4 28  1  0
  4 29  1  0
  8 30  1  0
  8 31  1  0
 10 32  1  0
 10 33  1  0
 10 34  1  0
 11 35  1  0
 11 36  1  0
 13 37  1  0
 14 38  1  0
 15 39  1  0
 18 40  1  0
 19 41  1  0
 21 42  1  0
M  END
>  <Energy>  (626) 
821.41248036199772

>  <compound_id>  (626) 
52757

>  <target_id>  (626) 
1

>  <reference_id>  (626) 
45

>  <inspiration_ids>  (626) 
[7, 45]

>  <energy_score>  (626) 
657.701487772736

>  <distance_score>  (626) 
11.46508804409866

>  <path>  (626) 
/opt/xchem-fragalysis-2/maxwin/BulkDock/SCRATCH/511022/C52757-P45/C52757-P45.minimised.mol

>  <scratch_subdir>  (626) 
/opt/xchem-fragalysis-2/maxwin/BulkDock/SCRATCH/511022/C52757-P45

>  <fragmenstein_runtime>  (626) 
19.818790674209595

>  <fragmenstein_outcome>  (626) 
too moved

>  <fragmenstein_mode>  (626) 
expansion

>  <fragmenstein_error>  (626) 


$$$$
C76570-P2
     RDKit          3D

 31 34  0  0  0  0  0  0  0  0999 V2000
   -2.2004  -11.2444   12.2202 C   0  0  0  0  0  0  0  0  0  0  0  0
   -0.8523  -10.7526   12.4627 C   0  0  0  0  0  0  0  0  0  0  0  0
    0.5701  -10.3954   11.5114 C   0  0  0  0  0  0  0  0  0  0  0  0
    1.5114   -8.6630   11.0905 C   0  0  0  0  0  0  0  0  0  0  0  0
    1.5205   -7.1889   10.9577 C   0  0  0  0  0  0  0  0  0  0  0  0
    2.6113   -5.5807   11.2309 C   0  0  0  0  0  0  0  0  0  0  0  0
    3.6814   -4.9116   11.6163 C   0  0  0  0  0  0  0  0  0  0  0  0
    3.6733   -6.0577   12.1771 C   0  0  0  0  0  0  0  0  0  0  0  0
    2.9790   -7.6997   11.6125 C   0  0  0  0  0  0  0  0  0  0  0  0
    2.8643   -5.0227   13.6217 C   0  0  0  0  0  0  0  0  0  0  0  0
    3.1318   -3.5356   13.4970 C   0  0  0  0  0  0  0  0  0  0  0  0
    3.6915   -3.5150   12.1079 C   0  0  0  0  0  0  0  0  0  0  0  0
    0.3393  -11.9843   11.3605 C   0  0  0  0  0  0  0  0  0  0  0  0
    1.1627  -13.1294   11.2969 N   0  0  0  0  0  0  0  0  0  0  0  0
    0.4719  -14.2327   11.5309 C   0  0  0  0  0  0  0  0  0  0  0  0
   -0.8433  -14.0839   11.4059 O   0  0  0  0  0  0  0  0  0  0  0  0
   -0.9862  -12.7327   11.2824 C   0  0  0  0  0  0  0  0  0  0  0  0
   -2.2767  -12.2439   11.3262 C   0  0  0  0  0  0  0  0  0  0  0  0
   -3.0153  -11.0169   12.8997 H   0  0  0  0  0  0  0  0  0  0  0  0
   -0.7173  -11.5529   13.2780 H   0  0  0  0  0  0  0  0  0  0  0  0
    0.7945   -7.0520   10.1033 H   0  0  0  0  0  0  0  0  0  0  0  0
    2.4372   -4.7808   10.3903 H   0  0  0  0  0  0  0  0  0  0  0  0
    3.6621   -8.3369   12.1555 H   0  0  0  0  0  0  0  0  0  0  0  0
    1.7769   -5.0880   13.5321 H   0  0  0  0  0  0  0  0  0  0  0  0
    3.1462   -5.4156   14.6095 H   0  0  0  0  0  0  0  0  0  0  0  0
    3.8143   -3.1324   14.2577 H   0  0  0  0  0  0  0  0  0  0  0  0
    2.2458   -2.9417   13.7003 H   0  0  0  0  0  0  0  0  0  0  0  0
    4.7109   -3.1746   12.2067 H   0  0  0  0  0  0  0  0  0  0  0  0
    3.1656   -2.8573   11.4337 H   0  0  0  0  0  0  0  0  0  0  0  0
    0.8469  -15.2342   11.6865 H   0  0  0  0  0  0  0  0  0  0  0  0
   -3.1528  -12.8650   11.2092 H   0  0  0  0  0  0  0  0  0  0  0  0
  1  2  2  0
  2  3  1  0
  3  4  1  0
  4  5  2  0
  5  6  1  0
  6  7  2  0
  7  8  1  0
  8  9  2  0
  8 10  1  0
 10 11  1  0
 11 12  1  0
  3 13  2  0
 13 14  1  0
 14 15  2  0
 15 16  1  0
 16 17  1  0
 17 18  2  0
 18  1  1  0
  9  4  1  0
 17 13  1  0
 12  7  1  0
  1 19  1  0
  2 20  1  0
  5 21  1  0
  6 22  1  0
  9 23  1  0
 10 24  1  0
 10 25  1  0
 11 26  1  0
 11 27  1  0
 12 28  1  0
 12 29  1  0
 15 30  1  0
 18 31  1  0
M  END
>  <Energy>  (627) 
928.44902531496598

>  <compound_id>  (627) 
76570

>  <target_id>  (627) 
1

>  <reference_id>  (627) 
2

>  <inspiration_ids>  (627) 
[2, 120]

>  <energy_score>  (627) 
854.0101234763333

>  <distance_score>  (627) 
13.282967213197702

>  <path>  (627) 
/opt/xchem-fragalysis-2/maxwin/BulkDock/SCRATCH/511022/C76570-P2/C76570-P2.minimised.mol

>  <scratch_subdir>  (627) 
/opt/xchem-fragalysis-2/maxwin/BulkDock/SCRATCH/511022/C76570-P2

>  <fragmenstein_runtime>  (627) 
11.012436866760254

>  <fragmenstein_outcome>  (627) 
too moved

>  <fragmenstein_mode>  (627) 
expansion

>  <fragmenstein_error>  (627) 


$$$$
C76570-P120
     RDKit          3D

 31 34  0  0  0  0  0  0  0  0999 V2000
   -5.9027  -11.8503   11.5241 C   0  0  0  0  0  0  0  0  0  0  0  0
   -4.5605  -11.5210   11.3297 C   0  0  0  0  0  0  0  0  0  0  0  0
   -3.8686  -11.6535   10.0860 C   0  0  0  0  0  0  0  0  0  0  0  0
   -2.4291  -11.1588   10.0514 C   0  0  0  0  0  0  0  0  0  0  0  0
   -1.8316  -10.0453    9.2154 C   0  0  0  0  0  0  0  0  0  0  0  0
   -0.1620   -9.3997    9.3187 C   0  0  0  0  0  0  0  0  0  0  0  0
    0.7388  -10.0911   10.3446 C   0  0  0  0  0  0  0  0  0  0  0  0
   -0.0639  -11.2131   11.0904 C   0  0  0  0  0  0  0  0  0  0  0  0
   -1.5039  -11.6768   11.0080 C   0  0  0  0  0  0  0  0  0  0  0  0
    0.8616  -12.1117   11.6669 C   0  0  0  0  0  0  0  0  0  0  0  0
    2.2416  -11.7899   10.9079 C   0  0  0  0  0  0  0  0  0  0  0  0
    2.2328  -10.3730   10.4901 C   0  0  0  0  0  0  0  0  0  0  0  0
   -4.6348  -12.3062    9.0634 C   0  0  0  0  0  0  0  0  0  0  0  0
   -4.3773  -12.7099    7.7670 N   0  0  0  0  0  0  0  0  0  0  0  0
   -5.4621  -13.3294    7.3644 C   0  0  0  0  0  0  0  0  0  0  0  0
   -6.4870  -13.3220    8.2481 O   0  0  0  0  0  0  0  0  0  0  0  0
   -5.9614  -12.6645    9.3234 C   0  0  0  0  0  0  0  0  0  0  0  0
   -6.6484  -12.3828   10.4887 C   0  0  0  0  0  0  0  0  0  0  0  0
   -6.3729  -11.6483   12.4839 H   0  0  0  0  0  0  0  0  0  0  0  0
   -4.0322  -11.0771   12.1756 H   0  0  0  0  0  0  0  0  0  0  0  0
   -2.4619   -9.6374    8.4111 H   0  0  0  0  0  0  0  0  0  0  0  0
    0.0164   -8.5411    8.6898 H   0  0  0  0  0  0  0  0  0  0  0  0
   -1.7936  -12.5276   11.6237 H   0  0  0  0  0  0  0  0  0  0  0  0
    0.5688  -13.1658   11.5694 H   0  0  0  0  0  0  0  0  0  0  0  0
    0.7556  -11.9109   12.7263 H   0  0  0  0  0  0  0  0  0  0  0  0
    2.3804  -12.5505   10.1264 H   0  0  0  0  0  0  0  0  0  0  0  0
    3.2679  -11.9678   11.1144 H   0  0  0  0  0  0  0  0  0  0  0  0
    2.8014  -10.4896    9.5662 H   0  0  0  0  0  0  0  0  0  0  0  0
    2.8333   -9.7779   11.1280 H   0  0  0  0  0  0  0  0  0  0  0  0
   -5.6343  -13.8213    6.4185 H   0  0  0  0  0  0  0  0  0  0  0  0
   -7.7048  -12.5693   10.5895 H   0  0  0  0  0  0  0  0  0  0  0  0
  1  2  2  0
  2  3  1  0
  3  4  1  0
  4  5  2  0
  5  6  1  0
  6  7  2  0
  7  8  1  0
  8  9  2  0
  8 10  1  0
 10 11  1  0
 11 12  1  0
  3 13  2  0
 13 14  1  0
 14 15  2  0
 15 16  1  0
 16 17  1  0
 17 18  2  0
 18  1  1  0
  9  4  1  0
 17 13  1  0
 12  7  1  0
  1 19  1  0
  2 20  1  0
  5 21  1  0
  6 22  1  0
  9 23  1  0
 10 24  1  0
 10 25  1  0
 11 26  1  0
 11 27  1  0
 12 28  1  0
 12 29  1  0
 15 30  1  0
 18 31  1  0
M  END
>  <Energy>  (628) 
180.43041847517247

>  <compound_id>  (628) 
76570

>  <target_id>  (628) 
1

>  <reference_id>  (628) 
120

>  <inspiration_ids>  (628) 
[2, 120]

>  <energy_score>  (628) 
105.99151663654584

>  <distance_score>  (628) 
14.53529983279334

>  <path>  (628) 
/opt/xchem-fragalysis-2/maxwin/BulkDock/SCRATCH/511022/C76570-P120/C76570-P120.minimised.mol

>  <scratch_subdir>  (628) 
/opt/xchem-fragalysis-2/maxwin/BulkDock/SCRATCH/511022/C76570-P120

>  <fragmenstein_runtime>  (628) 
11.909834861755371

>  <fragmenstein_outcome>  (628) 
too moved

>  <fragmenstein_mode>  (628) 
expansion

>  <fragmenstein_error>  (628) 


$$$$
C76571-P2
     RDKit          3D

 45 47  0  0  0  0  0  0  0  0999 V2000
    5.9492  -12.5015   13.2451 C   0  0  0  0  0  0  0  0  0  0  0  0
    4.9946  -11.1920   12.2249 C   0  0  0  0  0  0  0  0  0  0  0  0
    5.7754  -10.2501   13.8061 C   0  0  0  0  0  0  0  0  0  0  0  0
    7.4541   -9.1334   13.7390 N   0  0  0  0  0  0  0  0  0  0  0  0
    8.5706   -9.9830   14.5299 C   0  0  0  0  0  0  0  0  0  0  0  0
    8.1724   -7.4745   14.4405 C   0  0  0  0  0  0  0  0  0  0  0  0
    8.7612   -5.4687   14.4077 C   0  0  0  0  0  0  0  0  0  0  0  0
   10.2870   -5.0038   14.3265 N   0  0  0  0  0  0  0  0  0  0  0  0
   10.5803   -3.6079   14.6856 C   0  0  0  0  0  0  0  0  0  0  0  0
   11.7511   -2.8426   14.8499 C   0  0  0  0  0  0  0  0  0  0  0  0
   11.6810   -1.4565   15.1055 C   0  0  0  0  0  0  0  0  0  0  0  0
   10.4515   -0.8183   15.2353 C   0  0  0  0  0  0  0  0  0  0  0  0
    9.2701   -1.5623   15.1580 C   0  0  0  0  0  0  0  0  0  0  0  0
    9.4015   -2.9438   14.8832 C   0  0  0  0  0  0  0  0  0  0  0  0
    8.4158   -3.9135   15.0977 O   0  0  0  0  0  0  0  0  0  0  0  0
    3.8243  -12.6503   11.3069 N   0  0  0  0  0  0  0  0  0  0  0  0
    1.9302  -12.7623   11.0946 C   0  0  0  0  0  0  0  0  0  0  0  0
    1.1112  -11.8629   11.3537 O   0  0  0  0  0  0  0  0  0  0  0  0
    0.9414  -14.5022   10.7135 C   0  0  0  0  0  0  0  0  0  0  0  0
   -0.3331  -14.5701   11.1959 C   0  0  0  0  0  0  0  0  0  0  0  0
   -1.2207  -15.5857   10.7667 C   0  0  0  0  0  0  0  0  0  0  0  0
   -0.7767  -16.7712   10.1720 C   0  0  0  0  0  0  0  0  0  0  0  0
    0.5682  -16.8861    9.8781 C   0  0  0  0  0  0  0  0  0  0  0  0
    1.4011  -15.7678   10.0858 C   0  0  0  0  0  0  0  0  0  0  0  0
    6.9892  -12.3235   13.3993 H   0  0  0  0  0  0  0  0  0  0  0  0
    6.2331  -13.4260   12.7005 H   0  0  0  0  0  0  0  0  0  0  0  0
    5.3545  -12.6435   14.1129 H   0  0  0  0  0  0  0  0  0  0  0  0
    5.8672  -10.8384   11.8911 H   0  0  0  0  0  0  0  0  0  0  0  0
    4.9982   -9.4598   13.9101 H   0  0  0  0  0  0  0  0  0  0  0  0
    5.4349  -10.8463   14.6018 H   0  0  0  0  0  0  0  0  0  0  0  0
    8.9116  -10.8920   14.0354 H   0  0  0  0  0  0  0  0  0  0  0  0
    8.3359  -10.2017   15.5673 H   0  0  0  0  0  0  0  0  0  0  0  0
    9.4744   -9.4045   14.6794 H   0  0  0  0  0  0  0  0  0  0  0  0
    7.0840   -7.4423   14.7565 H   0  0  0  0  0  0  0  0  0  0  0  0
    8.1954   -7.4637   13.3317 H   0  0  0  0  0  0  0  0  0  0  0  0
   12.7188   -3.2977   14.8171 H   0  0  0  0  0  0  0  0  0  0  0  0
   12.6024   -0.8850   15.1904 H   0  0  0  0  0  0  0  0  0  0  0  0
   10.4058    0.2553   15.3926 H   0  0  0  0  0  0  0  0  0  0  0  0
    8.2906   -1.1130   15.2701 H   0  0  0  0  0  0  0  0  0  0  0  0
    4.2581  -13.4841   10.9442 H   0  0  0  0  0  0  0  0  0  0  0  0
   -0.5687  -13.6799   11.7319 H   0  0  0  0  0  0  0  0  0  0  0  0
   -2.2855  -15.4396   10.9276 H   0  0  0  0  0  0  0  0  0  0  0  0
   -1.4739  -17.5682    9.9264 H   0  0  0  0  0  0  0  0  0  0  0  0
    0.9601  -17.7868    9.4149 H   0  0  0  0  0  0  0  0  0  0  0  0
    2.4205  -15.8356    9.7074 H   0  0  0  0  0  0  0  0  0  0  0  0
  1  2  1  0
  2  3  1  0
  3  4  1  0
  4  5  1  0
  4  6  1  0
  6  7  1  0
  7  8  2  0
  8  9  1  0
  9 10  2  0
 10 11  1  0
 11 12  2  0
 12 13  1  0
 13 14  2  0
 14 15  1  0
  2 16  1  0
 16 17  1  0
 17 18  2  0
 17 19  1  0
 19 20  2  0
 20 21  1  0
 21 22  2  0
 22 23  1  0
 23 24  2  0
 15  7  1  0
 24 19  1  0
 14  9  1  0
  1 25  1  0
  1 26  1  0
  1 27  1  0
  2 28  1  0
  3 29  1  0
  3 30  1  0
  5 31  1  0
  5 32  1  0
  5 33  1  0
  6 34  1  0
  6 35  1  0
 10 36  1  0
 11 37  1  0
 12 38  1  0
 13 39  1  0
 16 40  1  0
 20 41  1  0
 21 42  1  0
 22 43  1  0
 23 44  1  0
 24 45  1  0
M  END
>  <Energy>  (629) 
1023.0071607904501

>  <compound_id>  (629) 
76571

>  <target_id>  (629) 
1

>  <reference_id>  (629) 
2

>  <inspiration_ids>  (629) 
[2, 120]

>  <energy_score>  (629) 
902.9592905460156

>  <distance_score>  (629) 
9.108319343436756

>  <path>  (629) 
/opt/xchem-fragalysis-2/maxwin/BulkDock/SCRATCH/511022/C76571-P2/C76571-P2.minimised.mol

>  <scratch_subdir>  (629) 
/opt/xchem-fragalysis-2/maxwin/BulkDock/SCRATCH/511022/C76571-P2

>  <fragmenstein_runtime>  (629) 
24.520421504974365

>  <fragmenstein_outcome>  (629) 
too moved

>  <fragmenstein_mode>  (629) 
expansion

>  <fragmenstein_error>  (629) 


$$$$
C76571-P120
     RDKit          3D

 45 47  0  0  0  0  0  0  0  0999 V2000
   11.7794  -11.5843   12.7181 C   0  0  0  0  0  0  0  0  0  0  0  0
   10.7533  -12.3307   13.5878 C   0  0  0  0  0  0  0  0  0  0  0  0
    9.7910  -11.2700   14.4578 C   0  0  0  0  0  0  0  0  0  0  0  0
   10.4154  -10.0597   15.0040 N   0  0  0  0  0  0  0  0  0  0  0  0
   11.4314  -10.4507   15.9724 C   0  0  0  0  0  0  0  0  0  0  0  0
    9.6659   -8.4235   15.2001 C   0  0  0  0  0  0  0  0  0  0  0  0
   10.7933   -6.7319   15.3779 C   0  0  0  0  0  0  0  0  0  0  0  0
   11.7501   -6.2427   16.2532 N   0  0  0  0  0  0  0  0  0  0  0  0
   11.9254   -4.7748   16.2232 C   0  0  0  0  0  0  0  0  0  0  0  0
   12.7781   -3.9150   16.9559 C   0  0  0  0  0  0  0  0  0  0  0  0
   12.8775   -2.5516   16.6207 C   0  0  0  0  0  0  0  0  0  0  0  0
   12.1092   -2.0190   15.5960 C   0  0  0  0  0  0  0  0  0  0  0  0
   11.2344   -2.8393   14.8819 C   0  0  0  0  0  0  0  0  0  0  0  0
   11.1724   -4.1934   15.2113 C   0  0  0  0  0  0  0  0  0  0  0  0
   10.4578   -5.2363   14.5164 O   0  0  0  0  0  0  0  0  0  0  0  0
   10.1237  -13.3773   12.7024 N   0  0  0  0  0  0  0  0  0  0  0  0
   10.7288  -14.3741   11.8184 C   0  0  0  0  0  0  0  0  0  0  0  0
   11.8796  -14.6623   11.6362 O   0  0  0  0  0  0  0  0  0  0  0  0
    9.7850  -15.1239   10.8781 C   0  0  0  0  0  0  0  0  0  0  0  0
    9.8520  -16.5306   10.7479 C   0  0  0  0  0  0  0  0  0  0  0  0
    9.0306  -17.2429    9.8438 C   0  0  0  0  0  0  0  0  0  0  0  0
    8.1548  -16.5562    9.0119 C   0  0  0  0  0  0  0  0  0  0  0  0
    8.1020  -15.1678    9.1168 C   0  0  0  0  0  0  0  0  0  0  0  0
    8.8801  -14.4568   10.0515 C   0  0  0  0  0  0  0  0  0  0  0  0
   12.3041  -12.2533   12.0297 H   0  0  0  0  0  0  0  0  0  0  0  0
   11.2969  -10.8278   12.0934 H   0  0  0  0  0  0  0  0  0  0  0  0
   12.5759  -11.1612   13.3334 H   0  0  0  0  0  0  0  0  0  0  0  0
   11.3151  -12.9221   14.3209 H   0  0  0  0  0  0  0  0  0  0  0  0
    8.9736  -10.9266   13.8800 H   0  0  0  0  0  0  0  0  0  0  0  0
    9.3714  -11.8623   15.2777 H   0  0  0  0  0  0  0  0  0  0  0  0
   11.9701  -11.3597   15.6882 H   0  0  0  0  0  0  0  0  0  0  0  0
   11.0256  -10.6475   16.9639 H   0  0  0  0  0  0  0  0  0  0  0  0
   12.1947   -9.6921   15.9597 H   0  0  0  0  0  0  0  0  0  0  0  0
    9.5462   -9.0118   16.0825 H   0  0  0  0  0  0  0  0  0  0  0  0
    8.7849   -8.3125   14.5590 H   0  0  0  0  0  0  0  0  0  0  0  0
   13.3670   -4.2920   17.7799 H   0  0  0  0  0  0  0  0  0  0  0  0
   13.5646   -1.9156   17.1737 H   0  0  0  0  0  0  0  0  0  0  0  0
   12.1974   -0.9686   15.3295 H   0  0  0  0  0  0  0  0  0  0  0  0
   10.6705   -2.4473   14.0610 H   0  0  0  0  0  0  0  0  0  0  0  0
    9.1183  -13.4655   12.6609 H   0  0  0  0  0  0  0  0  0  0  0  0
   10.5753  -17.0781   11.3523 H   0  0  0  0  0  0  0  0  0  0  0  0
    9.1269  -18.3238    9.7687 H   0  0  0  0  0  0  0  0  0  0  0  0
    7.5642  -17.0770    8.2640 H   0  0  0  0  0  0  0  0  0  0  0  0
    7.5171  -14.5952    8.4106 H   0  0  0  0  0  0  0  0  0  0  0  0
    8.8399  -13.3707   10.0526 H   0  0  0  0  0  0  0  0  0  0  0  0
  1  2  1  0
  2  3  1  0
  3  4  1  0
  4  5  1  0
  4  6  1  0
  6  7  1  0
  7  8  2  0
  8  9  1  0
  9 10  2  0
 10 11  1  0
 11 12  2  0
 12 13  1  0
 13 14  2  0
 14 15  1  0
  2 16  1  0
 16 17  1  0
 17 18  2  0
 17 19  1  0
 19 20  2  0
 20 21  1  0
 21 22  2  0
 22 23  1  0
 23 24  2  0
 15  7  1  0
 24 19  1  0
 14  9  1  0
  1 25  1  0
  1 26  1  0
  1 27  1  0
  2 28  1  0
  3 29  1  0
  3 30  1  0
  5 31  1  0
  5 32  1  0
  5 33  1  0
  6 34  1  0
  6 35  1  0
 10 36  1  0
 11 37  1  0
 12 38  1  0
 13 39  1  0
 16 40  1  0
 20 41  1  0
 21 42  1  0
 22 43  1  0
 23 44  1  0
 24 45  1  0
M  END
>  <Energy>  (630) 
309.21626244347931

>  <compound_id>  (630) 
76571

>  <target_id>  (630) 
1

>  <reference_id>  (630) 
120

>  <inspiration_ids>  (630) 
[2, 120]

>  <energy_score>  (630) 
189.16839219906203

>  <distance_score>  (630) 
13.043018171193047

>  <path>  (630) 
/opt/xchem-fragalysis-2/maxwin/BulkDock/SCRATCH/511022/C76571-P120/C76571-P120.minimised.mol

>  <scratch_subdir>  (630) 
/opt/xchem-fragalysis-2/maxwin/BulkDock/SCRATCH/511022/C76571-P120

>  <fragmenstein_runtime>  (630) 
22.91196632385254

>  <fragmenstein_outcome>  (630) 
too moved

>  <fragmenstein_mode>  (630) 
expansion

>  <fragmenstein_error>  (630) 


$$$$
C11097-P2
     RDKit          3D

 42 44  0  0  0  0  0  0  0  0999 V2000
   10.8517  -12.0831   19.1765 C   0  0  0  0  0  0  0  0  0  0  0  0
    9.8616  -12.0769   18.0122 C   0  0  0  0  0  0  0  0  0  0  0  0
   10.3752  -11.2190   16.7610 C   0  0  0  0  0  0  0  0  0  0  0  0
   11.7370  -10.5539   16.9374 N   0  0  0  0  0  0  0  0  0  0  0  0
   12.6784  -11.6354   16.4791 C   0  0  0  0  0  0  0  0  0  0  0  0
   11.9884   -9.1605   15.9556 C   0  0  0  0  0  0  0  0  0  0  0  0
   12.2634   -7.1653   16.1827 C   0  0  0  0  0  0  0  0  0  0  0  0
   13.0408   -6.2253   16.8826 N   0  0  0  0  0  0  0  0  0  0  0  0
   12.8767   -4.8865   16.6987 C   0  0  0  0  0  0  0  0  0  0  0  0
   13.6314   -3.7413   16.9862 C   0  0  0  0  0  0  0  0  0  0  0  0
   13.1690   -2.5106   16.4891 C   0  0  0  0  0  0  0  0  0  0  0  0
   11.9876   -2.4462   15.7478 C   0  0  0  0  0  0  0  0  0  0  0  0
   11.2235   -3.6027   15.5188 C   0  0  0  0  0  0  0  0  0  0  0  0
   11.7017   -4.8054   16.0624 C   0  0  0  0  0  0  0  0  0  0  0  0
   11.2787   -6.2492   15.8836 O   0  0  0  0  0  0  0  0  0  0  0  0
    9.2446  -13.4177   17.7352 N   0  0  0  0  0  0  0  0  0  0  0  0
    8.7626  -14.4624   18.6501 C   0  0  0  0  0  0  0  0  0  0  0  0
    8.8172  -14.5366   19.8444 O   0  0  0  0  0  0  0  0  0  0  0  0
    7.9803  -15.5742   17.9590 C   0  0  0  0  0  0  0  0  0  0  0  0
    8.0923  -16.2263   16.7365 C   0  0  0  0  0  0  0  0  0  0  0  0
    6.9800  -17.0950   16.4242 C   0  0  0  0  0  0  0  0  0  0  0  0
    6.0179  -17.0856   17.4025 C   0  0  0  0  0  0  0  0  0  0  0  0
    6.5004  -16.1289   18.7366 S   0  0  0  0  0  0  0  0  0  0  0  0
   10.3781  -12.4767   20.0822 H   0  0  0  0  0  0  0  0  0  0  0  0
   11.7138  -12.7240   18.9711 H   0  0  0  0  0  0  0  0  0  0  0  0
   11.2017  -11.0770   19.4262 H   0  0  0  0  0  0  0  0  0  0  0  0
    9.0013  -11.5107   18.3972 H   0  0  0  0  0  0  0  0  0  0  0  0
    9.5989  -10.4753   16.5917 H   0  0  0  0  0  0  0  0  0  0  0  0
   10.3557  -11.8363   15.8517 H   0  0  0  0  0  0  0  0  0  0  0  0
   12.3397  -12.6277   16.8017 H   0  0  0  0  0  0  0  0  0  0  0  0
   12.7602  -11.6762   15.3874 H   0  0  0  0  0  0  0  0  0  0  0  0
   13.6641  -11.5431   16.9413 H   0  0  0  0  0  0  0  0  0  0  0  0
   10.9576   -9.3949   15.6052 H   0  0  0  0  0  0  0  0  0  0  0  0
   12.6082   -9.5081   15.1361 H   0  0  0  0  0  0  0  0  0  0  0  0
   14.5698   -3.8164   17.5226 H   0  0  0  0  0  0  0  0  0  0  0  0
   13.7556   -1.6106   16.6580 H   0  0  0  0  0  0  0  0  0  0  0  0
   11.6621   -1.5011   15.3173 H   0  0  0  0  0  0  0  0  0  0  0  0
   10.3418   -3.5718   14.8970 H   0  0  0  0  0  0  0  0  0  0  0  0
    9.1028  -13.7223   16.7800 H   0  0  0  0  0  0  0  0  0  0  0  0
    8.9271  -16.0753   16.0655 H   0  0  0  0  0  0  0  0  0  0  0  0
    6.8927  -17.6639   15.5070 H   0  0  0  0  0  0  0  0  0  0  0  0
    5.0751  -17.6146   17.4221 H   0  0  0  0  0  0  0  0  0  0  0  0
  1  2  1  0
  2  3  1  0
  3  4  1  0
  4  5  1  0
  4  6  1  0
  6  7  1  0
  7  8  2  0
  8  9  1  0
  9 10  2  0
 10 11  1  0
 11 12  2  0
 12 13  1  0
 13 14  2  0
 14 15  1  0
  2 16  1  0
 16 17  1  0
 17 18  2  0
 17 19  1  0
 19 20  2  0
 20 21  1  0
 21 22  2  0
 22 23  1  0
 15  7  1  0
 23 19  1  0
 14  9  1  0
  1 24  1  0
  1 25  1  0
  1 26  1  0
  2 27  1  0
  3 28  1  0
  3 29  1  0
  5 30  1  0
  5 31  1  0
  5 32  1  0
  6 33  1  0
  6 34  1  0
 10 35  1  0
 11 36  1  0
 12 37  1  0
 13 38  1  0
 16 39  1  0
 20 40  1  0
 21 41  1  0
 22 42  1  0
M  END
>  <Energy>  (631) 
272.30666365793718

>  <compound_id>  (631) 
11097

>  <target_id>  (631) 
1

>  <reference_id>  (631) 
2

>  <inspiration_ids>  (631) 
[2, 120]

>  <energy_score>  (631) 
143.90673910242413

>  <distance_score>  (631) 
13.469562037208771

>  <path>  (631) 
/opt/xchem-fragalysis-2/maxwin/BulkDock/SCRATCH/511022/C11097-P2/C11097-P2.minimised.mol

>  <scratch_subdir>  (631) 
/opt/xchem-fragalysis-2/maxwin/BulkDock/SCRATCH/511022/C11097-P2

>  <fragmenstein_runtime>  (631) 
15.500915765762329

>  <fragmenstein_outcome>  (631) 
too moved

>  <fragmenstein_mode>  (631) 
expansion

>  <fragmenstein_error>  (631) 


$$$$
C11097-P120
     RDKit          3D

 42 44  0  0  0  0  0  0  0  0999 V2000
    3.5256   -8.2733   11.7033 C   0  0  0  0  0  0  0  0  0  0  0  0
    3.7870   -9.9981   12.8357 C   0  0  0  0  0  0  0  0  0  0  0  0
    4.8255   -8.4560   13.7323 C   0  0  0  0  0  0  0  0  0  0  0  0
    6.5604   -7.7063   14.1843 N   0  0  0  0  0  0  0  0  0  0  0  0
    7.0236   -7.5403   12.7053 C   0  0  0  0  0  0  0  0  0  0  0  0
    7.6863   -6.3476   15.2587 C   0  0  0  0  0  0  0  0  0  0  0  0
    8.7626   -4.5174   14.9838 C   0  0  0  0  0  0  0  0  0  0  0  0
   10.1529   -4.2183   14.8552 N   0  0  0  0  0  0  0  0  0  0  0  0
   10.3516   -2.8529   14.9326 C   0  0  0  0  0  0  0  0  0  0  0  0
   11.5437   -2.1046   14.9506 C   0  0  0  0  0  0  0  0  0  0  0  0
   11.4672   -0.7124   15.1083 C   0  0  0  0  0  0  0  0  0  0  0  0
   10.2298   -0.0821   15.2619 C   0  0  0  0  0  0  0  0  0  0  0  0
    9.0345   -0.8195   15.2459 C   0  0  0  0  0  0  0  0  0  0  0  0
    9.1346   -2.1982   15.0446 C   0  0  0  0  0  0  0  0  0  0  0  0
    8.0940   -3.1305   15.0173 O   0  0  0  0  0  0  0  0  0  0  0  0
    2.2511  -10.7227   11.7835 N   0  0  0  0  0  0  0  0  0  0  0  0
    0.8486  -11.7193   12.2860 C   0  0  0  0  0  0  0  0  0  0  0  0
    0.6986  -12.1847   13.3921 O   0  0  0  0  0  0  0  0  0  0  0  0
   -0.3793  -12.0020   11.4518 C   0  0  0  0  0  0  0  0  0  0  0  0
   -1.0638  -13.2633   11.2529 C   0  0  0  0  0  0  0  0  0  0  0  0
   -1.4848  -13.8826   12.4483 C   0  0  0  0  0  0  0  0  0  0  0  0
   -2.4755  -13.0040   12.8146 C   0  0  0  0  0  0  0  0  0  0  0  0
   -2.0647  -11.3990   12.2668 S   0  0  0  0  0  0  0  0  0  0  0  0
    2.5362   -7.8274   11.4534 H   0  0  0  0  0  0  0  0  0  0  0  0
    3.9896   -8.3581   10.6997 H   0  0  0  0  0  0  0  0  0  0  0  0
    3.9369   -7.3402   12.1315 H   0  0  0  0  0  0  0  0  0  0  0  0
    3.5078  -10.3626   13.8422 H   0  0  0  0  0  0  0  0  0  0  0  0
    5.1682   -9.3623   14.1959 H   0  0  0  0  0  0  0  0  0  0  0  0
    4.0913   -7.7869   14.1363 H   0  0  0  0  0  0  0  0  0  0  0  0
    7.3575   -8.4149   12.2501 H   0  0  0  0  0  0  0  0  0  0  0  0
    7.9114   -7.0225   12.5352 H   0  0  0  0  0  0  0  0  0  0  0  0
    6.3248   -6.9249   12.1603 H   0  0  0  0  0  0  0  0  0  0  0  0
    7.0287   -6.2294   16.1286 H   0  0  0  0  0  0  0  0  0  0  0  0
    8.4943   -7.0415   15.0708 H   0  0  0  0  0  0  0  0  0  0  0  0
   12.4975   -2.6075   14.8462 H   0  0  0  0  0  0  0  0  0  0  0  0
   12.3810   -0.1233   15.1066 H   0  0  0  0  0  0  0  0  0  0  0  0
   10.1875    0.9992   15.3698 H   0  0  0  0  0  0  0  0  0  0  0  0
    8.0680   -0.3532   15.3452 H   0  0  0  0  0  0  0  0  0  0  0  0
    2.1015  -10.3902   10.8480 H   0  0  0  0  0  0  0  0  0  0  0  0
   -1.7894  -13.2975   10.4412 H   0  0  0  0  0  0  0  0  0  0  0  0
   -1.5913  -14.9435   12.6351 H   0  0  0  0  0  0  0  0  0  0  0  0
   -3.3529  -13.1832   13.4201 H   0  0  0  0  0  0  0  0  0  0  0  0
  1  2  1  0
  2  3  1  0
  3  4  1  0
  4  5  1  0
  4  6  1  0
  6  7  1  0
  7  8  2  0
  8  9  1  0
  9 10  2  0
 10 11  1  0
 11 12  2  0
 12 13  1  0
 13 14  2  0
 14 15  1  0
  2 16  1  0
 16 17  1  0
 17 18  2  0
 17 19  1  0
 19 20  2  0
 20 21  1  0
 21 22  2  0
 22 23  1  0
 15  7  1  0
 23 19  1  0
 14  9  1  0
  1 24  1  0
  1 25  1  0
  1 26  1  0
  2 27  1  0
  3 28  1  0
  3 29  1  0
  5 30  1  0
  5 31  1  0
  5 32  1  0
  6 33  1  0
  6 34  1  0
 10 35  1  0
 11 36  1  0
 12 37  1  0
 13 38  1  0
 16 39  1  0
 20 40  1  0
 21 41  1  0
 22 42  1  0
M  END
>  <Energy>  (632) 
919.55371935146331

>  <compound_id>  (632) 
11097

>  <target_id>  (632) 
1

>  <reference_id>  (632) 
120

>  <inspiration_ids>  (632) 
[2, 120]

>  <energy_score>  (632) 
791.1537947959519

>  <distance_score>  (632) 
9.651787305124671

>  <path>  (632) 
/opt/xchem-fragalysis-2/maxwin/BulkDock/SCRATCH/511022/C11097-P120/C11097-P120.minimised.mol

>  <scratch_subdir>  (632) 
/opt/xchem-fragalysis-2/maxwin/BulkDock/SCRATCH/511022/C11097-P120

>  <fragmenstein_runtime>  (632) 
15.780342817306519

>  <fragmenstein_outcome>  (632) 
too moved

>  <fragmenstein_mode>  (632) 
expansion

>  <fragmenstein_error>  (632) 


$$$$
C76572-P2
     RDKit          3D

 42 44  0  0  0  0  0  0  0  0999 V2000
   12.2989   -2.1533   13.6913 C   0  0  0  0  0  0  0  0  0  0  0  0
   11.6075   -1.9811   15.0169 C   0  0  0  0  0  0  0  0  0  0  0  0
   12.3680   -2.7098   16.1451 C   0  0  0  0  0  0  0  0  0  0  0  0
   13.8024   -2.4187   16.3284 N   0  0  0  0  0  0  0  0  0  0  0  0
   14.3841   -3.4220   17.2260 C   0  0  0  0  0  0  0  0  0  0  0  0
   14.0326   -1.0719   16.8881 C   0  0  0  0  0  0  0  0  0  0  0  0
   14.2003    0.0311   15.8972 C   0  0  0  0  0  0  0  0  0  0  0  0
   14.4147   -0.0125   14.5949 N   0  0  0  0  0  0  0  0  0  0  0  0
   14.4736    1.2980   14.2237 C   0  0  0  0  0  0  0  0  0  0  0  0
   14.6580    1.8899   12.9705 C   0  0  0  0  0  0  0  0  0  0  0  0
   14.6314    3.2888   12.8992 C   0  0  0  0  0  0  0  0  0  0  0  0
   14.4469    4.0691   14.0492 C   0  0  0  0  0  0  0  0  0  0  0  0
   14.2801    3.4882   15.3118 C   0  0  0  0  0  0  0  0  0  0  0  0
   14.2938    2.1039   15.3343 C   0  0  0  0  0  0  0  0  0  0  0  0
   14.1201    1.2984   16.4173 O   0  0  0  0  0  0  0  0  0  0  0  0
   11.2805   -0.5878   15.2208 N   0  0  0  0  0  0  0  0  0  0  0  0
   10.0730    0.0609   15.8984 C   0  0  0  0  0  0  0  0  0  0  0  0
    9.1813   -0.4193   16.4715 O   0  0  0  0  0  0  0  0  0  0  0  0
   10.1075    1.5051   15.6948 C   0  0  0  0  0  0  0  0  0  0  0  0
    9.2902    2.5047   16.1927 C   0  0  0  0  0  0  0  0  0  0  0  0
    9.7405    3.7213   15.6310 C   0  0  0  0  0  0  0  0  0  0  0  0
   10.7884    3.3921   14.8065 C   0  0  0  0  0  0  0  0  0  0  0  0
   11.0271    2.0555   14.8420 O   0  0  0  0  0  0  0  0  0  0  0  0
   11.9736   -1.3929   12.9856 H   0  0  0  0  0  0  0  0  0  0  0  0
   12.0492   -3.1356   13.2845 H   0  0  0  0  0  0  0  0  0  0  0  0
   13.3867   -2.0858   13.7438 H   0  0  0  0  0  0  0  0  0  0  0  0
   10.6280   -2.4718   14.9510 H   0  0  0  0  0  0  0  0  0  0  0  0
   11.8568   -2.5462   17.0876 H   0  0  0  0  0  0  0  0  0  0  0  0
   12.2637   -3.7815   15.9285 H   0  0  0  0  0  0  0  0  0  0  0  0
   14.2600   -4.4261   16.8085 H   0  0  0  0  0  0  0  0  0  0  0  0
   13.9279   -3.4011   18.2226 H   0  0  0  0  0  0  0  0  0  0  0  0
   15.4640   -3.2687   17.3327 H   0  0  0  0  0  0  0  0  0  0  0  0
   13.2507   -0.8017   17.6038 H   0  0  0  0  0  0  0  0  0  0  0  0
   14.9704   -1.0701   17.4615 H   0  0  0  0  0  0  0  0  0  0  0  0
   14.8014    1.2781   12.0874 H   0  0  0  0  0  0  0  0  0  0  0  0
   14.7649    3.7762   11.9354 H   0  0  0  0  0  0  0  0  0  0  0  0
   14.4397    5.1544   13.9607 H   0  0  0  0  0  0  0  0  0  0  0  0
   14.1314    4.0742   16.2099 H   0  0  0  0  0  0  0  0  0  0  0  0
   11.8250    0.1271   14.7406 H   0  0  0  0  0  0  0  0  0  0  0  0
    8.4505    2.3552   16.8587 H   0  0  0  0  0  0  0  0  0  0  0  0
    9.3367    4.7113   15.7900 H   0  0  0  0  0  0  0  0  0  0  0  0
   11.4344    3.9654   14.1572 H   0  0  0  0  0  0  0  0  0  0  0  0
  1  2  1  0
  2  3  1  0
  3  4  1  0
  4  5  1  0
  4  6  1  0
  6  7  1  0
  7  8  2  0
  8  9  1  0
  9 10  2  0
 10 11  1  0
 11 12  2  0
 12 13  1  0
 13 14  2  0
 14 15  1  0
  2 16  1  0
 16 17  1  0
 17 18  2  0
 17 19  1  0
 19 20  2  0
 20 21  1  0
 21 22  2  0
 22 23  1  0
 15  7  1  0
 23 19  1  0
 14  9  1  0
  1 24  1  0
  1 25  1  0
  1 26  1  0
  2 27  1  0
  3 28  1  0
  3 29  1  0
  5 30  1  0
  5 31  1  0
  5 32  1  0
  6 33  1  0
  6 34  1  0
 10 35  1  0
 11 36  1  0
 12 37  1  0
 13 38  1  0
 16 39  1  0
 20 40  1  0
 21 41  1  0
 22 42  1  0
M  END
>  <Energy>  (633) 
83.271203598603108

>  <compound_id>  (633) 
76572

>  <target_id>  (633) 
1

>  <reference_id>  (633) 
2

>  <inspiration_ids>  (633) 
[2, 120]

>  <energy_score>  (633) 
-35.24417972175303

>  <distance_score>  (633) 
1.0060915972405684

>  <path>  (633) 
/opt/xchem-fragalysis-2/maxwin/BulkDock/SCRATCH/511022/C76572-P2/C76572-P2.minimised.mol

>  <scratch_subdir>  (633) 
/opt/xchem-fragalysis-2/maxwin/BulkDock/SCRATCH/511022/C76572-P2

>  <fragmenstein_runtime>  (633) 
5.522726774215698

>  <fragmenstein_outcome>  (633) 
too moved

>  <fragmenstein_mode>  (633) 
expansion

>  <fragmenstein_error>  (633) 


$$$$
C76572-P120
     RDKit          3D

 42 44  0  0  0  0  0  0  0  0999 V2000
   13.5972   -2.9182   18.2216 C   0  0  0  0  0  0  0  0  0  0  0  0
   14.0623   -2.0663   17.0780 C   0  0  0  0  0  0  0  0  0  0  0  0
   14.2062   -3.0292   15.9081 C   0  0  0  0  0  0  0  0  0  0  0  0
   14.8583   -2.4859   14.7412 N   0  0  0  0  0  0  0  0  0  0  0  0
   16.2643   -2.1647   14.8431 C   0  0  0  0  0  0  0  0  0  0  0  0
   14.0388   -1.6784   13.8549 C   0  0  0  0  0  0  0  0  0  0  0  0
   14.2094   -0.1991   13.8536 C   0  0  0  0  0  0  0  0  0  0  0  0
   13.9042    0.6020   12.8521 N   0  0  0  0  0  0  0  0  0  0  0  0
   14.2284    1.8353   13.3185 C   0  0  0  0  0  0  0  0  0  0  0  0
   14.1213    3.0837   12.7082 C   0  0  0  0  0  0  0  0  0  0  0  0
   14.4604    4.2080   13.4651 C   0  0  0  0  0  0  0  0  0  0  0  0
   14.9095    4.0824   14.7862 C   0  0  0  0  0  0  0  0  0  0  0  0
   15.0623    2.8318   15.3964 C   0  0  0  0  0  0  0  0  0  0  0  0
   14.7088    1.7471   14.6111 C   0  0  0  0  0  0  0  0  0  0  0  0
   14.7316    0.4305   14.9549 O   0  0  0  0  0  0  0  0  0  0  0  0
   13.1798   -0.9684   16.7460 N   0  0  0  0  0  0  0  0  0  0  0  0
   11.7740   -0.9697   16.1154 C   0  0  0  0  0  0  0  0  0  0  0  0
   11.0727   -1.8577   15.8346 O   0  0  0  0  0  0  0  0  0  0  0  0
   11.4038    0.4046   15.7951 C   0  0  0  0  0  0  0  0  0  0  0  0
   10.4178    0.9172   14.9767 C   0  0  0  0  0  0  0  0  0  0  0  0
   10.4970    2.3277   15.0789 C   0  0  0  0  0  0  0  0  0  0  0  0
   11.5205    2.5935   15.9541 C   0  0  0  0  0  0  0  0  0  0  0  0
   12.0988    1.4388   16.3693 O   0  0  0  0  0  0  0  0  0  0  0  0
   13.7042   -2.3933   19.1737 H   0  0  0  0  0  0  0  0  0  0  0  0
   14.2296   -3.8068   18.3408 H   0  0  0  0  0  0  0  0  0  0  0  0
   12.5806   -3.2746   18.0741 H   0  0  0  0  0  0  0  0  0  0  0  0
   15.0306   -1.6255   17.3389 H   0  0  0  0  0  0  0  0  0  0  0  0
   14.7958   -3.8997   16.2219 H   0  0  0  0  0  0  0  0  0  0  0  0
   13.2208   -3.4362   15.6471 H   0  0  0  0  0  0  0  0  0  0  0  0
   16.8233   -3.0172   15.2453 H   0  0  0  0  0  0  0  0  0  0  0  0
   16.4608   -1.3059   15.4912 H   0  0  0  0  0  0  0  0  0  0  0  0
   16.6924   -1.9561   13.8563 H   0  0  0  0  0  0  0  0  0  0  0  0
   14.2897   -2.0058   12.8356 H   0  0  0  0  0  0  0  0  0  0  0  0
   12.9756   -1.9249   13.9412 H   0  0  0  0  0  0  0  0  0  0  0  0
   13.7553    3.1744   11.6923 H   0  0  0  0  0  0  0  0  0  0  0  0
   14.3671    5.1978   13.0227 H   0  0  0  0  0  0  0  0  0  0  0  0
   15.1594    4.9799   15.3502 H   0  0  0  0  0  0  0  0  0  0  0  0
   15.4141    2.7167   16.4129 H   0  0  0  0  0  0  0  0  0  0  0  0
   13.4682   -0.0102   16.9308 H   0  0  0  0  0  0  0  0  0  0  0  0
    9.7392    0.3225   14.3786 H   0  0  0  0  0  0  0  0  0  0  0  0
    9.8849    3.0688   14.5863 H   0  0  0  0  0  0  0  0  0  0  0  0
   11.9463    3.5025   16.3567 H   0  0  0  0  0  0  0  0  0  0  0  0
  1  2  1  0
  2  3  1  0
  3  4  1  0
  4  5  1  0
  4  6  1  0
  6  7  1  0
  7  8  2  0
  8  9  1  0
  9 10  2  0
 10 11  1  0
 11 12  2  0
 12 13  1  0
 13 14  2  0
 14 15  1  0
  2 16  1  0
 16 17  1  0
 17 18  2  0
 17 19  1  0
 19 20  2  0
 20 21  1  0
 21 22  2  0
 22 23  1  0
 15  7  1  0
 23 19  1  0
 14  9  1  0
  1 24  1  0
  1 25  1  0
  1 26  1  0
  2 27  1  0
  3 28  1  0
  3 29  1  0
  5 30  1  0
  5 31  1  0
  5 32  1  0
  6 33  1  0
  6 34  1  0
 10 35  1  0
 11 36  1  0
 12 37  1  0
 13 38  1  0
 16 39  1  0
 20 40  1  0
 21 41  1  0
 22 42  1  0
M  END
>  <Energy>  (634) 
90.095365274724458

>  <compound_id>  (634) 
76572

>  <target_id>  (634) 
1

>  <reference_id>  (634) 
120

>  <inspiration_ids>  (634) 
[2, 120]

>  <energy_score>  (634) 
-28.420018045631195

>  <distance_score>  (634) 
2.265154653039298

>  <path>  (634) 
/opt/xchem-fragalysis-2/maxwin/BulkDock/SCRATCH/511022/C76572-P120/C76572-P120.minimised.mol

>  <scratch_subdir>  (634) 
/opt/xchem-fragalysis-2/maxwin/BulkDock/SCRATCH/511022/C76572-P120

>  <fragmenstein_runtime>  (634) 
6.3762688636779785

>  <fragmenstein_outcome>  (634) 
too moved

>  <fragmenstein_mode>  (634) 
expansion

>  <fragmenstein_error>  (634) 


$$$$
C76573-P2
     RDKit          3D

 42 44  0  0  0  0  0  0  0  0999 V2000
   12.5389    1.1829   16.1129 C   0  0  0  0  0  0  0  0  0  0  0  0
   12.6385   -0.2494   15.6529 C   0  0  0  0  0  0  0  0  0  0  0  0
   13.2518   -1.2247   16.6970 C   0  0  0  0  0  0  0  0  0  0  0  0
   14.0954   -2.2539   16.0726 N   0  0  0  0  0  0  0  0  0  0  0  0
   14.1406   -3.4570   16.9066 C   0  0  0  0  0  0  0  0  0  0  0  0
   15.4726   -1.7612   15.8446 C   0  0  0  0  0  0  0  0  0  0  0  0
   15.5873   -0.4792   15.0720 C   0  0  0  0  0  0  0  0  0  0  0  0
   15.4124   -0.2747   13.7781 N   0  0  0  0  0  0  0  0  0  0  0  0
   15.3087    1.0836   13.6710 C   0  0  0  0  0  0  0  0  0  0  0  0
   14.9821    1.8930   12.5786 C   0  0  0  0  0  0  0  0  0  0  0  0
   14.8083    3.2652   12.8058 C   0  0  0  0  0  0  0  0  0  0  0  0
   14.9893    3.8162   14.0813 C   0  0  0  0  0  0  0  0  0  0  0  0
   15.3672    3.0248   15.1731 C   0  0  0  0  0  0  0  0  0  0  0  0
   15.5022    1.6684   14.9104 C   0  0  0  0  0  0  0  0  0  0  0  0
   15.7327    0.6705   15.8136 O   0  0  0  0  0  0  0  0  0  0  0  0
   11.3336   -0.6348   15.2604 N   0  0  0  0  0  0  0  0  0  0  0  0
   10.6548   -1.9804   15.2999 C   0  0  0  0  0  0  0  0  0  0  0  0
   11.0678   -3.0216   15.5885 O   0  0  0  0  0  0  0  0  0  0  0  0
    9.2628   -1.7992   14.9757 C   0  0  0  0  0  0  0  0  0  0  0  0
    8.5410   -0.7888   14.3521 C   0  0  0  0  0  0  0  0  0  0  0  0
    7.4632   -1.4597   13.7502 C   0  0  0  0  0  0  0  0  0  0  0  0
    7.2042   -2.5790   14.4048 O   0  0  0  0  0  0  0  0  0  0  0  0
    8.3914   -2.8386   14.9303 C   0  0  0  0  0  0  0  0  0  0  0  0
   11.5975    1.4055   16.6193 H   0  0  0  0  0  0  0  0  0  0  0  0
   12.5483    1.8554   15.2468 H   0  0  0  0  0  0  0  0  0  0  0  0
   13.3570    1.4732   16.7763 H   0  0  0  0  0  0  0  0  0  0  0  0
   13.1790   -0.2814   14.7127 H   0  0  0  0  0  0  0  0  0  0  0  0
   13.8329   -0.6752   17.4496 H   0  0  0  0  0  0  0  0  0  0  0  0
   12.4411   -1.6990   17.2521 H   0  0  0  0  0  0  0  0  0  0  0  0
   13.1435   -3.8965   17.0169 H   0  0  0  0  0  0  0  0  0  0  0  0
   14.5362   -3.2500   17.9077 H   0  0  0  0  0  0  0  0  0  0  0  0
   14.7680   -4.2254   16.4418 H   0  0  0  0  0  0  0  0  0  0  0  0
   15.9957   -1.6340   16.8022 H   0  0  0  0  0  0  0  0  0  0  0  0
   16.0272   -2.5236   15.2827 H   0  0  0  0  0  0  0  0  0  0  0  0
   14.8229    1.4565   11.5991 H   0  0  0  0  0  0  0  0  0  0  0  0
   14.5285    3.9120   11.9765 H   0  0  0  0  0  0  0  0  0  0  0  0
   14.8461    4.8860   14.2257 H   0  0  0  0  0  0  0  0  0  0  0  0
   15.5028    3.4322   16.1670 H   0  0  0  0  0  0  0  0  0  0  0  0
   10.6989    0.0493   14.8834 H   0  0  0  0  0  0  0  0  0  0  0  0
    8.9387    0.1471   13.9989 H   0  0  0  0  0  0  0  0  0  0  0  0
    6.7893   -1.2366   12.9343 H   0  0  0  0  0  0  0  0  0  0  0  0
    8.6038   -3.8606   15.1478 H   0  0  0  0  0  0  0  0  0  0  0  0
  1  2  1  0
  2  3  1  0
  3  4  1  0
  4  5  1  0
  4  6  1  0
  6  7  1  0
  7  8  2  0
  8  9  1  0
  9 10  2  0
 10 11  1  0
 11 12  2  0
 12 13  1  0
 13 14  2  0
 14 15  1  0
  2 16  1  0
 16 17  1  0
 17 18  2  0
 17 19  1  0
 19 20  1  0
 20 21  2  0
 21 22  1  0
 22 23  1  0
 15  7  1  0
 23 19  2  0
 14  9  1  0
  1 24  1  0
  1 25  1  0
  1 26  1  0
  2 27  1  0
  3 28  1  0
  3 29  1  0
  5 30  1  0
  5 31  1  0
  5 32  1  0
  6 33  1  0
  6 34  1  0
 10 35  1  0
 11 36  1  0
 12 37  1  0
 13 38  1  0
 16 39  1  0
 20 40  1  0
 21 41  1  0
 23 42  1  0
M  END
>  <Energy>  (635) 
99.65680561516497

>  <compound_id>  (635) 
76573

>  <target_id>  (635) 
1

>  <reference_id>  (635) 
2

>  <inspiration_ids>  (635) 
[2, 120]

>  <energy_score>  (635) 
12.04293486358722

>  <distance_score>  (635) 
1.9214279693611305

>  <path>  (635) 
/opt/xchem-fragalysis-2/maxwin/BulkDock/SCRATCH/511022/C76573-P2/C76573-P2.minimised.mol

>  <scratch_subdir>  (635) 
/opt/xchem-fragalysis-2/maxwin/BulkDock/SCRATCH/511022/C76573-P2

>  <fragmenstein_runtime>  (635) 
5.2953102588653564

>  <fragmenstein_outcome>  (635) 
too moved

>  <fragmenstein_mode>  (635) 
expansion

>  <fragmenstein_error>  (635) 


$$$$
C76573-P120
     RDKit          3D

 42 44  0  0  0  0  0  0  0  0999 V2000
   12.2343   -2.0641   13.7974 C   0  0  0  0  0  0  0  0  0  0  0  0
   11.5817   -2.0180   15.1549 C   0  0  0  0  0  0  0  0  0  0  0  0
   12.4837   -2.7366   16.1943 C   0  0  0  0  0  0  0  0  0  0  0  0
   13.8675   -2.2551   16.3220 N   0  0  0  0  0  0  0  0  0  0  0  0
   14.6816   -3.1941   17.0827 C   0  0  0  0  0  0  0  0  0  0  0  0
   13.9741   -0.9061   16.8929 C   0  0  0  0  0  0  0  0  0  0  0  0
   14.1934    0.1746   15.8930 C   0  0  0  0  0  0  0  0  0  0  0  0
   14.6876    0.1130   14.6714 N   0  0  0  0  0  0  0  0  0  0  0  0
   14.5936    1.3952   14.2173 C   0  0  0  0  0  0  0  0  0  0  0  0
   14.8935    1.9553   12.9722 C   0  0  0  0  0  0  0  0  0  0  0  0
   14.6704    3.3287   12.8044 C   0  0  0  0  0  0  0  0  0  0  0  0
   14.1924    4.1211   13.8575 C   0  0  0  0  0  0  0  0  0  0  0  0
   13.9100    3.5761   15.1140 C   0  0  0  0  0  0  0  0  0  0  0  0
   14.1083    2.2108   15.2251 C   0  0  0  0  0  0  0  0  0  0  0  0
   13.8486    1.4337   16.3111 O   0  0  0  0  0  0  0  0  0  0  0  0
   11.1194   -0.6864   15.5255 N   0  0  0  0  0  0  0  0  0  0  0  0
   10.9078    0.5822   14.6610 C   0  0  0  0  0  0  0  0  0  0  0  0
   11.1443    0.7782   13.5346 O   0  0  0  0  0  0  0  0  0  0  0  0
   10.2412    1.6260   15.4337 C   0  0  0  0  0  0  0  0  0  0  0  0
   10.4031    3.0370   15.3127 C   0  0  0  0  0  0  0  0  0  0  0  0
    9.5256    3.6152   16.1968 C   0  0  0  0  0  0  0  0  0  0  0  0
    8.7898    2.6604   16.8180 O   0  0  0  0  0  0  0  0  0  0  0  0
    9.2053    1.4640   16.3313 C   0  0  0  0  0  0  0  0  0  0  0  0
   12.2804   -3.0945   13.4426 H   0  0  0  0  0  0  0  0  0  0  0  0
   11.6506   -1.5112   13.0768 H   0  0  0  0  0  0  0  0  0  0  0  0
   13.2432   -1.6550   13.7731 H   0  0  0  0  0  0  0  0  0  0  0  0
   10.6535   -2.5999   15.0925 H   0  0  0  0  0  0  0  0  0  0  0  0
   12.0102   -2.7201   17.1732 H   0  0  0  0  0  0  0  0  0  0  0  0
   12.5118   -3.7930   15.8977 H   0  0  0  0  0  0  0  0  0  0  0  0
   15.7204   -2.8520   17.1557 H   0  0  0  0  0  0  0  0  0  0  0  0
   14.7205   -4.1465   16.5550 H   0  0  0  0  0  0  0  0  0  0  0  0
   14.2945   -3.3582   18.0944 H   0  0  0  0  0  0  0  0  0  0  0  0
   13.1033   -0.6623   17.5049 H   0  0  0  0  0  0  0  0  0  0  0  0
   14.8295   -0.8424   17.5799 H   0  0  0  0  0  0  0  0  0  0  0  0
   15.2640    1.3356   12.1643 H   0  0  0  0  0  0  0  0  0  0  0  0
   14.8790    3.7869   11.8397 H   0  0  0  0  0  0  0  0  0  0  0  0
   14.0388    5.1863   13.6937 H   0  0  0  0  0  0  0  0  0  0  0  0
   13.5331    4.1698   15.9369 H   0  0  0  0  0  0  0  0  0  0  0  0
   10.8807   -0.4856   16.4799 H   0  0  0  0  0  0  0  0  0  0  0  0
   11.0793    3.5579   14.6507 H   0  0  0  0  0  0  0  0  0  0  0  0
    9.2990    4.6356   16.4726 H   0  0  0  0  0  0  0  0  0  0  0  0
    8.6432    0.6144   16.6877 H   0  0  0  0  0  0  0  0  0  0  0  0
  1  2  1  0
  2  3  1  0
  3  4  1  0
  4  5  1  0
  4  6  1  0
  6  7  1  0
  7  8  2  0
  8  9  1  0
  9 10  2  0
 10 11  1  0
 11 12  2  0
 12 13  1  0
 13 14  2  0
 14 15  1  0
  2 16  1  0
 16 17  1  0
 17 18  2  0
 17 19  1  0
 19 20  1  0
 20 21  2  0
 21 22  1  0
 22 23  1  0
 15  7  1  0
 23 19  2  0
 14  9  1  0
  1 24  1  0
  1 25  1  0
  1 26  1  0
  2 27  1  0
  3 28  1  0
  3 29  1  0
  5 30  1  0
  5 31  1  0
  5 32  1  0
  6 33  1  0
  6 34  1  0
 10 35  1  0
 11 36  1  0
 12 37  1  0
 13 38  1  0
 16 39  1  0
 20 40  1  0
 21 41  1  0
 23 42  1  0
M  END
>  <Energy>  (636) 
78.892576374183719

>  <compound_id>  (636) 
76573

>  <target_id>  (636) 
1

>  <reference_id>  (636) 
120

>  <inspiration_ids>  (636) 
[2, 120]

>  <energy_score>  (636) 
-8.72129437739494

>  <distance_score>  (636) 
1.0073365234106442

>  <path>  (636) 
/opt/xchem-fragalysis-2/maxwin/BulkDock/SCRATCH/511022/C76573-P120/C76573-P120.minimised.mol

>  <scratch_subdir>  (636) 
/opt/xchem-fragalysis-2/maxwin/BulkDock/SCRATCH/511022/C76573-P120

>  <fragmenstein_runtime>  (636) 
5.936631917953491

>  <fragmenstein_outcome>  (636) 
too moved

>  <fragmenstein_mode>  (636) 
expansion

>  <fragmenstein_error>  (636) 


$$$$
C76574-P2
     RDKit          3D

 42 44  0  0  0  0  0  0  0  0999 V2000
   14.3579   -0.9546   18.4794 C   0  0  0  0  0  0  0  0  0  0  0  0
   13.8167   -2.2597   17.9288 C   0  0  0  0  0  0  0  0  0  0  0  0
   14.9529   -3.1602   17.3887 C   0  0  0  0  0  0  0  0  0  0  0  0
   15.8767   -2.4652   16.4734 N   0  0  0  0  0  0  0  0  0  0  0  0
   17.1458   -3.1850   16.3653 C   0  0  0  0  0  0  0  0  0  0  0  0
   15.3448   -2.1463   15.1386 C   0  0  0  0  0  0  0  0  0  0  0  0
   15.2969   -0.6937   14.7567 C   0  0  0  0  0  0  0  0  0  0  0  0
   15.3805   -0.2036   13.5305 N   0  0  0  0  0  0  0  0  0  0  0  0
   15.0204    1.1059   13.6741 C   0  0  0  0  0  0  0  0  0  0  0  0
   14.8554    2.1175   12.7218 C   0  0  0  0  0  0  0  0  0  0  0  0
   14.3961    3.3633   13.1686 C   0  0  0  0  0  0  0  0  0  0  0  0
   14.1320    3.5837   14.5239 C   0  0  0  0  0  0  0  0  0  0  0  0
   13.6845    4.7893   14.9020 F   0  0  0  0  0  0  0  0  0  0  0  0
   14.3196    2.5994   15.4935 C   0  0  0  0  0  0  0  0  0  0  0  0
   14.7638    1.3797   15.0057 C   0  0  0  0  0  0  0  0  0  0  0  0
   14.9823    0.2342   15.7100 O   0  0  0  0  0  0  0  0  0  0  0  0
   12.9167   -2.0931   16.8366 N   0  0  0  0  0  0  0  0  0  0  0  0
   12.2354   -0.8303   16.2883 C   0  0  0  0  0  0  0  0  0  0  0  0
   12.2391    0.2613   16.6868 O   0  0  0  0  0  0  0  0  0  0  0  0
   11.6296   -1.2405   15.0604 C   0  0  0  0  0  0  0  0  0  0  0  0
   11.0884   -2.4663   14.7328 C   0  0  0  0  0  0  0  0  0  0  0  0
   11.7646   -2.8387   13.5562 C   0  0  0  0  0  0  0  0  0  0  0  0
   12.5152   -1.7557   13.1742 C   0  0  0  0  0  0  0  0  0  0  0  0
   12.2633   -0.7076   13.9798 O   0  0  0  0  0  0  0  0  0  0  0  0
   15.1461   -0.5059   17.8766 H   0  0  0  0  0  0  0  0  0  0  0  0
   13.6117   -0.1766   18.6364 H   0  0  0  0  0  0  0  0  0  0  0  0
   14.8191   -1.1486   19.4560 H   0  0  0  0  0  0  0  0  0  0  0  0
   13.2891   -2.8311   18.6982 H   0  0  0  0  0  0  0  0  0  0  0  0
   15.5180   -3.4940   18.2698 H   0  0  0  0  0  0  0  0  0  0  0  0
   14.5542   -4.0690   16.9176 H   0  0  0  0  0  0  0  0  0  0  0  0
   17.0148   -4.1772   15.9186 H   0  0  0  0  0  0  0  0  0  0  0  0
   17.6081   -3.3083   17.3511 H   0  0  0  0  0  0  0  0  0  0  0  0
   17.8629   -2.6200   15.7588 H   0  0  0  0  0  0  0  0  0  0  0  0
   15.9592   -2.6362   14.3686 H   0  0  0  0  0  0  0  0  0  0  0  0
   14.3685   -2.5904   14.9807 H   0  0  0  0  0  0  0  0  0  0  0  0
   15.0519    1.9283   11.6732 H   0  0  0  0  0  0  0  0  0  0  0  0
   14.2397    4.1728   12.4612 H   0  0  0  0  0  0  0  0  0  0  0  0
   14.1019    2.7610   16.5400 H   0  0  0  0  0  0  0  0  0  0  0  0
   12.7716   -2.8600   16.1954 H   0  0  0  0  0  0  0  0  0  0  0  0
   10.5512   -3.1507   15.3618 H   0  0  0  0  0  0  0  0  0  0  0  0
   11.7033   -3.7910   13.0557 H   0  0  0  0  0  0  0  0  0  0  0  0
   13.2335   -1.5650   12.3886 H   0  0  0  0  0  0  0  0  0  0  0  0
  1  2  1  0
  2  3  1  0
  3  4  1  0
  4  5  1  0
  4  6  1  0
  6  7  1  0
  7  8  2  0
  8  9  1  0
  9 10  2  0
 10 11  1  0
 11 12  2  0
 12 13  1  0
 12 14  1  0
 14 15  2  0
 15 16  1  0
  2 17  1  0
 17 18  1  0
 18 19  2  0
 18 20  1  0
 20 21  2  0
 21 22  1  0
 22 23  2  0
 23 24  1  0
 16  7  1  0
 24 20  1  0
 15  9  1  0
  1 25  1  0
  1 26  1  0
  1 27  1  0
  2 28  1  0
  3 29  1  0
  3 30  1  0
  5 31  1  0
  5 32  1  0
  5 33  1  0
  6 34  1  0
  6 35  1  0
 10 36  1  0
 11 37  1  0
 14 38  1  0
 17 39  1  0
 21 40  1  0
 22 41  1  0
 23 42  1  0
M  END
>  <Energy>  (637) 
121.51030285857665

>  <compound_id>  (637) 
76574

>  <target_id>  (637) 
1

>  <reference_id>  (637) 
2

>  <inspiration_ids>  (637) 
[2, 120]

>  <energy_score>  (637) 
2.7541049059407214

>  <distance_score>  (637) 
2.2968856643278186

>  <path>  (637) 
/opt/xchem-fragalysis-2/maxwin/BulkDock/SCRATCH/511022/C76574-P2/C76574-P2.minimised.mol

>  <scratch_subdir>  (637) 
/opt/xchem-fragalysis-2/maxwin/BulkDock/SCRATCH/511022/C76574-P2

>  <fragmenstein_runtime>  (637) 
6.781871557235718

>  <fragmenstein_outcome>  (637) 
too moved

>  <fragmenstein_mode>  (637) 
expansion

>  <fragmenstein_error>  (637) 


$$$$
C76574-P120
     RDKit          3D

 42 44  0  0  0  0  0  0  0  0999 V2000
   13.5879    1.2710   16.9203 C   0  0  0  0  0  0  0  0  0  0  0  0
   13.4355   -0.1652   17.3313 C   0  0  0  0  0  0  0  0  0  0  0  0
   14.6913   -1.0692   17.4751 C   0  0  0  0  0  0  0  0  0  0  0  0
   14.8382   -2.0690   16.3831 N   0  0  0  0  0  0  0  0  0  0  0  0
   15.3027   -3.3445   16.9314 C   0  0  0  0  0  0  0  0  0  0  0  0
   15.8034   -1.6201   15.3591 C   0  0  0  0  0  0  0  0  0  0  0  0
   15.4934   -0.3421   14.6563 C   0  0  0  0  0  0  0  0  0  0  0  0
   14.8205   -0.1670   13.5374 N   0  0  0  0  0  0  0  0  0  0  0  0
   14.7775    1.1852   13.3886 C   0  0  0  0  0  0  0  0  0  0  0  0
   14.1166    1.9770   12.4461 C   0  0  0  0  0  0  0  0  0  0  0  0
   14.1601    3.3656   12.6161 C   0  0  0  0  0  0  0  0  0  0  0  0
   14.8606    3.9307   13.6840 C   0  0  0  0  0  0  0  0  0  0  0  0
   14.8662    5.2643   13.8157 F   0  0  0  0  0  0  0  0  0  0  0  0
   15.5691    3.1628   14.6073 C   0  0  0  0  0  0  0  0  0  0  0  0
   15.4945    1.7943   14.4049 C   0  0  0  0  0  0  0  0  0  0  0  0
   16.0098    0.8093   15.1988 O   0  0  0  0  0  0  0  0  0  0  0  0
   12.6563   -0.8171   16.3483 N   0  0  0  0  0  0  0  0  0  0  0  0
   11.2181   -0.5630   15.8870 C   0  0  0  0  0  0  0  0  0  0  0  0
   10.4135    0.1733   16.2934 O   0  0  0  0  0  0  0  0  0  0  0  0
   11.1740   -1.4158   14.7595 C   0  0  0  0  0  0  0  0  0  0  0  0
   10.8590   -2.7462   14.6571 C   0  0  0  0  0  0  0  0  0  0  0  0
   11.6496   -3.2274   13.6043 C   0  0  0  0  0  0  0  0  0  0  0  0
   12.5021   -2.2190   13.2470 C   0  0  0  0  0  0  0  0  0  0  0  0
   12.1042   -1.0742   13.8191 O   0  0  0  0  0  0  0  0  0  0  0  0
   13.4519    1.4294   15.8519 H   0  0  0  0  0  0  0  0  0  0  0  0
   12.8033    1.8804   17.3859 H   0  0  0  0  0  0  0  0  0  0  0  0
   14.5389    1.6910   17.2596 H   0  0  0  0  0  0  0  0  0  0  0  0
   12.9859   -0.1508   18.2978 H   0  0  0  0  0  0  0  0  0  0  0  0
   15.6012   -0.4768   17.6348 H   0  0  0  0  0  0  0  0  0  0  0  0
   14.5492   -1.6117   18.4218 H   0  0  0  0  0  0  0  0  0  0  0  0
   14.5580   -3.7553   17.6216 H   0  0  0  0  0  0  0  0  0  0  0  0
   16.2557   -3.2472   17.4642 H   0  0  0  0  0  0  0  0  0  0  0  0
   15.4307   -4.0778   16.1295 H   0  0  0  0  0  0  0  0  0  0  0  0
   16.8090   -1.5393   15.7943 H   0  0  0  0  0  0  0  0  0  0  0  0
   15.8681   -2.3931   14.5814 H   0  0  0  0  0  0  0  0  0  0  0  0
   13.5522    1.5201   11.6412 H   0  0  0  0  0  0  0  0  0  0  0  0
   13.6387    4.0177   11.9210 H   0  0  0  0  0  0  0  0  0  0  0  0
   16.1088    3.6042   15.4329 H   0  0  0  0  0  0  0  0  0  0  0  0
   13.1073   -1.4764   15.7108 H   0  0  0  0  0  0  0  0  0  0  0  0
   10.2077   -3.3261   15.2767 H   0  0  0  0  0  0  0  0  0  0  0  0
   11.6255   -4.2041   13.1626 H   0  0  0  0  0  0  0  0  0  0  0  0
   13.3387   -2.1330   12.5670 H   0  0  0  0  0  0  0  0  0  0  0  0
  1  2  1  0
  2  3  1  0
  3  4  1  0
  4  5  1  0
  4  6  1  0
  6  7  1  0
  7  8  2  0
  8  9  1  0
  9 10  2  0
 10 11  1  0
 11 12  2  0
 12 13  1  0
 12 14  1  0
 14 15  2  0
 15 16  1  0
  2 17  1  0
 17 18  1  0
 18 19  2  0
 18 20  1  0
 20 21  2  0
 21 22  1  0
 22 23  2  0
 23 24  1  0
 16  7  1  0
 24 20  1  0
 15  9  1  0
  1 25  1  0
  1 26  1  0
  1 27  1  0
  2 28  1  0
  3 29  1  0
  3 30  1  0
  5 31  1  0
  5 32  1  0
  5 33  1  0
  6 34  1  0
  6 35  1  0
 10 36  1  0
 11 37  1  0
 14 38  1  0
 17 39  1  0
 21 40  1  0
 22 41  1  0
 23 42  1  0
M  END
>  <Energy>  (638) 
112.63854929022916

>  <compound_id>  (638) 
76574

>  <target_id>  (638) 
1

>  <reference_id>  (638) 
120

>  <inspiration_ids>  (638) 
[2, 120]

>  <energy_score>  (638) 
-6.117648662409181

>  <distance_score>  (638) 
2.399925093941852

>  <path>  (638) 
/opt/xchem-fragalysis-2/maxwin/BulkDock/SCRATCH/511022/C76574-P120/C76574-P120.minimised.mol

>  <scratch_subdir>  (638) 
/opt/xchem-fragalysis-2/maxwin/BulkDock/SCRATCH/511022/C76574-P120

>  <fragmenstein_runtime>  (638) 
5.920507431030273

>  <fragmenstein_outcome>  (638) 
too moved

>  <fragmenstein_mode>  (638) 
expansion

>  <fragmenstein_error>  (638) 


$$$$
C76575-P2
     RDKit          3D

 42 44  0  0  0  0  0  0  0  0999 V2000
   11.1108   -0.8343   14.9902 C   0  0  0  0  0  0  0  0  0  0  0  0
   11.9996   -1.9983   14.5810 C   0  0  0  0  0  0  0  0  0  0  0  0
   12.5112   -2.7835   15.8204 C   0  0  0  0  0  0  0  0  0  0  0  0
   13.8896   -2.4888   16.2657 N   0  0  0  0  0  0  0  0  0  0  0  0
   14.3564   -3.5721   17.1382 C   0  0  0  0  0  0  0  0  0  0  0  0
   13.9965   -1.2066   16.9958 C   0  0  0  0  0  0  0  0  0  0  0  0
   14.2828    0.0066   16.1741 C   0  0  0  0  0  0  0  0  0  0  0  0
   15.2205    0.2171   15.2687 N   0  0  0  0  0  0  0  0  0  0  0  0
   14.9689    1.4880   14.8260 C   0  0  0  0  0  0  0  0  0  0  0  0
   15.5735    2.2515   13.8189 C   0  0  0  0  0  0  0  0  0  0  0  0
   15.0150    3.5027   13.5252 C   0  0  0  0  0  0  0  0  0  0  0  0
   13.9265    3.9868   14.2548 C   0  0  0  0  0  0  0  0  0  0  0  0
   13.4295    5.1931   13.9466 F   0  0  0  0  0  0  0  0  0  0  0  0
   13.3425    3.2677   15.2953 C   0  0  0  0  0  0  0  0  0  0  0  0
   13.8956    2.0199   15.5213 C   0  0  0  0  0  0  0  0  0  0  0  0
   13.4803    1.0919   16.4256 O   0  0  0  0  0  0  0  0  0  0  0  0
   13.0777   -1.6605   13.6702 N   0  0  0  0  0  0  0  0  0  0  0  0
   13.3286   -0.3838   12.8460 C   0  0  0  0  0  0  0  0  0  0  0  0
   12.6695    0.5693   12.7082 O   0  0  0  0  0  0  0  0  0  0  0  0
   14.5725   -0.4979   12.0619 C   0  0  0  0  0  0  0  0  0  0  0  0
   14.9609    0.3431   10.9705 C   0  0  0  0  0  0  0  0  0  0  0  0
   16.1800   -0.1066   10.5284 C   0  0  0  0  0  0  0  0  0  0  0  0
   16.5865   -1.1637   11.2720 O   0  0  0  0  0  0  0  0  0  0  0  0
   15.6217   -1.3871   12.2047 C   0  0  0  0  0  0  0  0  0  0  0  0
   11.6049   -0.1308   15.6540 H   0  0  0  0  0  0  0  0  0  0  0  0
   10.2257   -1.2042   15.5198 H   0  0  0  0  0  0  0  0  0  0  0  0
   10.7524   -0.2687   14.1262 H   0  0  0  0  0  0  0  0  0  0  0  0
   11.3752   -2.6954   14.0104 H   0  0  0  0  0  0  0  0  0  0  0  0
   12.4656   -3.8406   15.5418 H   0  0  0  0  0  0  0  0  0  0  0  0
   11.8034   -2.6950   16.6494 H   0  0  0  0  0  0  0  0  0  0  0  0
   13.7399   -3.6732   18.0389 H   0  0  0  0  0  0  0  0  0  0  0  0
   15.3967   -3.4084   17.4418 H   0  0  0  0  0  0  0  0  0  0  0  0
   14.3459   -4.5239   16.5996 H   0  0  0  0  0  0  0  0  0  0  0  0
   14.8279   -1.2551   17.7127 H   0  0  0  0  0  0  0  0  0  0  0  0
   13.1003   -1.0370   17.5950 H   0  0  0  0  0  0  0  0  0  0  0  0
   16.4200    1.8634   13.2640 H   0  0  0  0  0  0  0  0  0  0  0  0
   15.4352    4.1128   12.7307 H   0  0  0  0  0  0  0  0  0  0  0  0
   12.5021    3.6459   15.8590 H   0  0  0  0  0  0  0  0  0  0  0  0
   13.8195   -2.3220   13.5001 H   0  0  0  0  0  0  0  0  0  0  0  0
   14.3992    1.1753   10.5687 H   0  0  0  0  0  0  0  0  0  0  0  0
   16.8555    0.2046    9.7443 H   0  0  0  0  0  0  0  0  0  0  0  0
   15.8410   -2.1931   12.8923 H   0  0  0  0  0  0  0  0  0  0  0  0
  1  2  1  0
  2  3  1  0
  3  4  1  0
  4  5  1  0
  4  6  1  0
  6  7  1  0
  7  8  2  0
  8  9  1  0
  9 10  2  0
 10 11  1  0
 11 12  2  0
 12 13  1  0
 12 14  1  0
 14 15  2  0
 15 16  1  0
  2 17  1  0
 17 18  1  0
 18 19  2  0
 18 20  1  0
 20 21  1  0
 21 22  2  0
 22 23  1  0
 23 24  1  0
 16  7  1  0
 24 20  2  0
 15  9  1  0
  1 25  1  0
  1 26  1  0
  1 27  1  0
  2 28  1  0
  3 29  1  0
  3 30  1  0
  5 31  1  0
  5 32  1  0
  5 33  1  0
  6 34  1  0
  6 35  1  0
 10 36  1  0
 11 37  1  0
 14 38  1  0
 17 39  1  0
 21 40  1  0
 22 41  1  0
 24 42  1  0
M  END
>  <Energy>  (639) 
63.745289481710614

>  <compound_id>  (639) 
76575

>  <target_id>  (639) 
1

>  <reference_id>  (639) 
2

>  <inspiration_ids>  (639) 
[2, 120]

>  <energy_score>  (639) 
-21.967008226819303

>  <distance_score>  (639) 
1.113648765793776

>  <path>  (639) 
/opt/xchem-fragalysis-2/maxwin/BulkDock/SCRATCH/511022/C76575-P2/C76575-P2.minimised.mol

>  <scratch_subdir>  (639) 
/opt/xchem-fragalysis-2/maxwin/BulkDock/SCRATCH/511022/C76575-P2

>  <fragmenstein_runtime>  (639) 
6.945919036865234

>  <fragmenstein_outcome>  (639) 
too moved

>  <fragmenstein_mode>  (639) 
expansion

>  <fragmenstein_error>  (639) 


$$$$
C76575-P120
     RDKit          3D

 42 44  0  0  0  0  0  0  0  0999 V2000
   15.6545   -3.4551   15.8952 C   0  0  0  0  0  0  0  0  0  0  0  0
   15.1519   -2.0957   16.3147 C   0  0  0  0  0  0  0  0  0  0  0  0
   14.7785   -2.1042   17.7857 C   0  0  0  0  0  0  0  0  0  0  0  0
   15.3668   -0.9273   18.4300 N   0  0  0  0  0  0  0  0  0  0  0  0
   15.4267   -1.1535   19.8829 C   0  0  0  0  0  0  0  0  0  0  0  0
   14.6721    0.3600   18.1831 C   0  0  0  0  0  0  0  0  0  0  0  0
   14.7458    1.0543   16.8496 C   0  0  0  0  0  0  0  0  0  0  0  0
   15.4247    0.8005   15.7417 N   0  0  0  0  0  0  0  0  0  0  0  0
   14.9092    1.6672   14.8200 C   0  0  0  0  0  0  0  0  0  0  0  0
   15.1666    1.8257   13.4522 C   0  0  0  0  0  0  0  0  0  0  0  0
   14.4408    2.8084   12.7642 C   0  0  0  0  0  0  0  0  0  0  0  0
   13.5059    3.6042   13.4324 C   0  0  0  0  0  0  0  0  0  0  0  0
   12.8238    4.5206   12.7310 F   0  0  0  0  0  0  0  0  0  0  0  0
   13.2472    3.4735   14.7944 C   0  0  0  0  0  0  0  0  0  0  0  0
   13.9757    2.4860   15.4308 C   0  0  0  0  0  0  0  0  0  0  0  0
   13.8910    2.1289   16.7381 O   0  0  0  0  0  0  0  0  0  0  0  0
   13.9974   -1.9041   15.5167 N   0  0  0  0  0  0  0  0  0  0  0  0
   12.7320   -1.0808   15.7776 C   0  0  0  0  0  0  0  0  0  0  0  0
   12.4653   -0.3664   16.6534 O   0  0  0  0  0  0  0  0  0  0  0  0
   11.8087   -1.4174   14.7529 C   0  0  0  0  0  0  0  0  0  0  0  0
   12.1024   -2.0712   13.5460 C   0  0  0  0  0  0  0  0  0  0  0  0
   11.3689   -3.2212   13.6694 C   0  0  0  0  0  0  0  0  0  0  0  0
   10.4113   -3.0873   14.6230 O   0  0  0  0  0  0  0  0  0  0  0  0
   10.5606   -1.8372   15.1291 C   0  0  0  0  0  0  0  0  0  0  0  0
   14.8862   -4.2168   16.0401 H   0  0  0  0  0  0  0  0  0  0  0  0
   16.5381   -3.7475   16.4733 H   0  0  0  0  0  0  0  0  0  0  0  0
   15.9471   -3.4641   14.8391 H   0  0  0  0  0  0  0  0  0  0  0  0
   15.9330   -1.3841   16.0492 H   0  0  0  0  0  0  0  0  0  0  0  0
   15.2239   -2.9964   18.2469 H   0  0  0  0  0  0  0  0  0  0  0  0
   13.7055   -2.1906   17.9775 H   0  0  0  0  0  0  0  0  0  0  0  0
   16.0127   -2.0506   20.1133 H   0  0  0  0  0  0  0  0  0  0  0  0
   14.4294   -1.2683   20.3223 H   0  0  0  0  0  0  0  0  0  0  0  0
   15.9352   -0.3238   20.3870 H   0  0  0  0  0  0  0  0  0  0  0  0
   13.6371    0.2889   18.5171 H   0  0  0  0  0  0  0  0  0  0  0  0
   15.1276    1.0974   18.8614 H   0  0  0  0  0  0  0  0  0  0  0  0
   15.8984    1.2022   12.9518 H   0  0  0  0  0  0  0  0  0  0  0  0
   14.6053    2.9621   11.7012 H   0  0  0  0  0  0  0  0  0  0  0  0
   12.5237    4.0875   15.3117 H   0  0  0  0  0  0  0  0  0  0  0  0
   13.9278   -2.3503   14.6215 H   0  0  0  0  0  0  0  0  0  0  0  0
   12.9704   -1.9687   12.9091 H   0  0  0  0  0  0  0  0  0  0  0  0
   11.3700   -4.1486   13.1253 H   0  0  0  0  0  0  0  0  0  0  0  0
    9.8932   -1.5822   15.9281 H   0  0  0  0  0  0  0  0  0  0  0  0
  1  2  1  0
  2  3  1  0
  3  4  1  0
  4  5  1  0
  4  6  1  0
  6  7  1  0
  7  8  2  0
  8  9  1  0
  9 10  2  0
 10 11  1  0
 11 12  2  0
 12 13  1  0
 12 14  1  0
 14 15  2  0
 15 16  1  0
  2 17  1  0
 17 18  1  0
 18 19  2  0
 18 20  1  0
 20 21  1  0
 21 22  2  0
 22 23  1  0
 23 24  1  0
 16  7  1  0
 24 20  2  0
 15  9  1  0
  1 25  1  0
  1 26  1  0
  1 27  1  0
  2 28  1  0
  3 29  1  0
  3 30  1  0
  5 31  1  0
  5 32  1  0
  5 33  1  0
  6 34  1  0
  6 35  1  0
 10 36  1  0
 11 37  1  0
 14 38  1  0
 17 39  1  0
 21 40  1  0
 22 41  1  0
 24 42  1  0
M  END
>  <Energy>  (640) 
108.83487951280603

>  <compound_id>  (640) 
76575

>  <target_id>  (640) 
1

>  <reference_id>  (640) 
120

>  <inspiration_ids>  (640) 
[2, 120]

>  <energy_score>  (640) 
23.122581804274773

>  <distance_score>  (640) 
2.5108049630896376

>  <path>  (640) 
/opt/xchem-fragalysis-2/maxwin/BulkDock/SCRATCH/511022/C76575-P120/C76575-P120.minimised.mol

>  <scratch_subdir>  (640) 
/opt/xchem-fragalysis-2/maxwin/BulkDock/SCRATCH/511022/C76575-P120

>  <fragmenstein_runtime>  (640) 
4.4883105754852295

>  <fragmenstein_outcome>  (640) 
too moved

>  <fragmenstein_mode>  (640) 
expansion

>  <fragmenstein_error>  (640) 


$$$$
C76576-P2
     RDKit          3D

 45 47  0  0  0  0  0  0  0  0999 V2000
    5.6257  -11.2147   13.6043 C   0  0  0  0  0  0  0  0  0  0  0  0
    4.6737  -10.2951   14.2990 C   0  0  0  0  0  0  0  0  0  0  0  0
    5.7457   -8.4358   14.1373 C   0  0  0  0  0  0  0  0  0  0  0  0
    6.5306   -7.0531   15.3255 N   0  0  0  0  0  0  0  0  0  0  0  0
    5.8314   -6.5423   16.7778 C   0  0  0  0  0  0  0  0  0  0  0  0
    8.0203   -6.0988   15.1171 C   0  0  0  0  0  0  0  0  0  0  0  0
    8.8403   -4.2368   15.0127 C   0  0  0  0  0  0  0  0  0  0  0  0
   10.1944   -3.9597   14.9128 N   0  0  0  0  0  0  0  0  0  0  0  0
   10.3460   -2.6004   14.9406 C   0  0  0  0  0  0  0  0  0  0  0  0
   11.5089   -1.8069   14.9441 C   0  0  0  0  0  0  0  0  0  0  0  0
   11.3674   -0.4228   15.0992 C   0  0  0  0  0  0  0  0  0  0  0  0
   10.1010    0.1297   15.2710 C   0  0  0  0  0  0  0  0  0  0  0  0
    9.9920    1.4456   15.5014 F   0  0  0  0  0  0  0  0  0  0  0  0
    8.9382   -0.6481   15.2667 C   0  0  0  0  0  0  0  0  0  0  0  0
    9.0895   -2.0097   15.0493 C   0  0  0  0  0  0  0  0  0  0  0  0
    8.0998   -3.0069   15.0116 O   0  0  0  0  0  0  0  0  0  0  0  0
    3.7055  -11.4493   15.6443 N   0  0  0  0  0  0  0  0  0  0  0  0
    2.0865  -12.5159   15.5031 C   0  0  0  0  0  0  0  0  0  0  0  0
    1.4285  -12.5701   14.4590 O   0  0  0  0  0  0  0  0  0  0  0  0
    1.4477  -13.7371   16.9951 C   0  0  0  0  0  0  0  0  0  0  0  0
    0.0591  -14.0468   17.4300 C   0  0  0  0  0  0  0  0  0  0  0  0
   -0.3898  -14.6796   18.6319 C   0  0  0  0  0  0  0  0  0  0  0  0
    0.4979  -15.3053   19.4735 C   0  0  0  0  0  0  0  0  0  0  0  0
    1.8378  -15.2596   19.1170 C   0  0  0  0  0  0  0  0  0  0  0  0
    2.2796  -14.4657   17.9906 C   0  0  0  0  0  0  0  0  0  0  0  0
    6.6565  -10.8679   13.5214 H   0  0  0  0  0  0  0  0  0  0  0  0
    5.3011  -11.1336   12.6152 H   0  0  0  0  0  0  0  0  0  0  0  0
    5.5367  -12.2659   13.8416 H   0  0  0  0  0  0  0  0  0  0  0  0
    3.8674  -10.1521   13.6226 H   0  0  0  0  0  0  0  0  0  0  0  0
    6.7709   -8.5441   13.6949 H   0  0  0  0  0  0  0  0  0  0  0  0
    5.0509   -7.8377   13.5503 H   0  0  0  0  0  0  0  0  0  0  0  0
    5.8356   -7.3119   17.5547 H   0  0  0  0  0  0  0  0  0  0  0  0
    4.8203   -6.1378   16.6584 H   0  0  0  0  0  0  0  0  0  0  0  0
    6.4275   -5.8381   17.3320 H   0  0  0  0  0  0  0  0  0  0  0  0
    7.5976   -5.6862   16.0197 H   0  0  0  0  0  0  0  0  0  0  0  0
    8.6596   -6.9509   14.8291 H   0  0  0  0  0  0  0  0  0  0  0  0
   12.4839   -2.2690   14.8402 H   0  0  0  0  0  0  0  0  0  0  0  0
   12.2423    0.2201   15.1084 H   0  0  0  0  0  0  0  0  0  0  0  0
    7.9693   -0.2253   15.4331 H   0  0  0  0  0  0  0  0  0  0  0  0
    4.1149  -11.6074   16.5181 H   0  0  0  0  0  0  0  0  0  0  0  0
   -0.8460  -13.7655   16.9047 H   0  0  0  0  0  0  0  0  0  0  0  0
   -1.4574  -14.7006   18.8430 H   0  0  0  0  0  0  0  0  0  0  0  0
    0.1689  -15.8257   20.3654 H   0  0  0  0  0  0  0  0  0  0  0  0
    2.5850  -15.7402   19.7445 H   0  0  0  0  0  0  0  0  0  0  0  0
    3.3687  -14.4329   17.9867 H   0  0  0  0  0  0  0  0  0  0  0  0
  1  2  1  0
  2  3  1  0
  3  4  1  0
  4  5  1  0
  4  6  1  0
  6  7  1  0
  7  8  2  0
  8  9  1  0
  9 10  2  0
 10 11  1  0
 11 12  2  0
 12 13  1  0
 12 14  1  0
 14 15  2  0
 15 16  1  0
  2 17  1  0
 17 18  1  0
 18 19  2  0
 18 20  1  0
 20 21  2  0
 21 22  1  0
 22 23  2  0
 23 24  1  0
 24 25  2  0
 16  7  1  0
 25 20  1  0
 15  9  1  0
  1 26  1  0
  1 27  1  0
  1 28  1  0
  2 29  1  0
  3 30  1  0
  3 31  1  0
  5 32  1  0
  5 33  1  0
  5 34  1  0
  6 35  1  0
  6 36  1  0
 10 37  1  0
 11 38  1  0
 14 39  1  0
 17 40  1  0
 21 41  1  0
 22 42  1  0
 23 43  1  0
 24 44  1  0
 25 45  1  0
M  END
>  <Energy>  (641) 
780.96333548178222

>  <compound_id>  (641) 
76576

>  <target_id>  (641) 
1

>  <reference_id>  (641) 
2

>  <inspiration_ids>  (641) 
[2, 120]

>  <energy_score>  (641) 
657.9769117796299

>  <distance_score>  (641) 
11.205368396991577

>  <path>  (641) 
/opt/xchem-fragalysis-2/maxwin/BulkDock/SCRATCH/511022/C76576-P2/C76576-P2.minimised.mol

>  <scratch_subdir>  (641) 
/opt/xchem-fragalysis-2/maxwin/BulkDock/SCRATCH/511022/C76576-P2

>  <fragmenstein_runtime>  (641) 
23.933334827423096

>  <fragmenstein_outcome>  (641) 
too moved

>  <fragmenstein_mode>  (641) 
expansion

>  <fragmenstein_error>  (641) 


$$$$
C76576-P120
     RDKit          3D

 45 47  0  0  0  0  0  0  0  0999 V2000
    4.1468  -11.2699   14.8185 C   0  0  0  0  0  0  0  0  0  0  0  0
    3.1133  -10.7752   13.7465 C   0  0  0  0  0  0  0  0  0  0  0  0
    4.7160   -9.3418   13.9474 C   0  0  0  0  0  0  0  0  0  0  0  0
    6.5100   -8.3237   13.9256 N   0  0  0  0  0  0  0  0  0  0  0  0
    7.6049   -9.6037   13.6062 C   0  0  0  0  0  0  0  0  0  0  0  0
    8.0891   -7.2842   14.4906 C   0  0  0  0  0  0  0  0  0  0  0  0
    8.7768   -5.3135   14.5121 C   0  0  0  0  0  0  0  0  0  0  0  0
    8.5780   -3.8655   14.9997 N   0  0  0  0  0  0  0  0  0  0  0  0
    9.6703   -2.9740   14.9215 C   0  0  0  0  0  0  0  0  0  0  0  0
    9.7436   -1.5813   15.1769 C   0  0  0  0  0  0  0  0  0  0  0  0
   10.9978   -0.9931   15.3459 C   0  0  0  0  0  0  0  0  0  0  0  0
   12.1161   -1.8089   15.3824 C   0  0  0  0  0  0  0  0  0  0  0  0
   13.3048   -1.2689   15.6833 F   0  0  0  0  0  0  0  0  0  0  0  0
   12.0342   -3.1889   15.1604 C   0  0  0  0  0  0  0  0  0  0  0  0
   10.7938   -3.7295   14.8178 C   0  0  0  0  0  0  0  0  0  0  0  0
   10.4265   -5.0300   14.3945 O   0  0  0  0  0  0  0  0  0  0  0  0
    1.5008  -12.0777   14.3161 N   0  0  0  0  0  0  0  0  0  0  0  0
    0.1488  -12.8849   13.3556 C   0  0  0  0  0  0  0  0  0  0  0  0
   -0.0260  -12.6976   12.1693 O   0  0  0  0  0  0  0  0  0  0  0  0
   -1.2503  -14.0468   14.3260 C   0  0  0  0  0  0  0  0  0  0  0  0
   -3.0601  -14.6733   14.3133 C   0  0  0  0  0  0  0  0  0  0  0  0
   -4.1017  -15.1991   15.2408 C   0  0  0  0  0  0  0  0  0  0  0  0
   -3.9432  -14.9864   16.6116 C   0  0  0  0  0  0  0  0  0  0  0  0
   -2.7540  -14.3632   17.0354 C   0  0  0  0  0  0  0  0  0  0  0  0
   -1.5946  -14.1877   16.0326 C   0  0  0  0  0  0  0  0  0  0  0  0
    5.0139  -11.7208   14.3476 H   0  0  0  0  0  0  0  0  0  0  0  0
    3.8484  -12.0614   15.4058 H   0  0  0  0  0  0  0  0  0  0  0  0
    4.0203  -10.7395   15.7338 H   0  0  0  0  0  0  0  0  0  0  0  0
    3.1270  -10.7472   12.6327 H   0  0  0  0  0  0  0  0  0  0  0  0
    5.2515  -10.2096   13.5925 H   0  0  0  0  0  0  0  0  0  0  0  0
    4.2808   -8.5060   13.4132 H   0  0  0  0  0  0  0  0  0  0  0  0
    8.3596   -9.7209   14.3873 H   0  0  0  0  0  0  0  0  0  0  0  0
    7.1029  -10.5614   13.5211 H   0  0  0  0  0  0  0  0  0  0  0  0
    7.9875   -9.3536   12.6279 H   0  0  0  0  0  0  0  0  0  0  0  0
    8.9218   -7.9332   14.7985 H   0  0  0  0  0  0  0  0  0  0  0  0
    8.1505   -7.4231   13.3951 H   0  0  0  0  0  0  0  0  0  0  0  0
    8.8310   -0.9956   15.1992 H   0  0  0  0  0  0  0  0  0  0  0  0
   11.0972    0.0752   15.5025 H   0  0  0  0  0  0  0  0  0  0  0  0
   12.8988   -3.7995   15.3416 H   0  0  0  0  0  0  0  0  0  0  0  0
    1.5033  -12.4588   15.2815 H   0  0  0  0  0  0  0  0  0  0  0  0
   -3.6149  -14.4610   13.3551 H   0  0  0  0  0  0  0  0  0  0  0  0
   -5.0503  -15.5422   14.8363 H   0  0  0  0  0  0  0  0  0  0  0  0
   -4.7430  -15.2064   17.3094 H   0  0  0  0  0  0  0  0  0  0  0  0
   -2.5994  -14.0368   18.0591 H   0  0  0  0  0  0  0  0  0  0  0  0
   -1.8494  -15.2307   15.8218 H   0  0  0  0  0  0  0  0  0  0  0  0
  1  2  1  0
  2  3  1  0
  3  4  1  0
  4  5  1  0
  4  6  1  0
  6  7  1  0
  7  8  2  0
  8  9  1  0
  9 10  2  0
 10 11  1  0
 11 12  2  0
 12 13  1  0
 12 14  1  0
 14 15  2  0
 15 16  1  0
  2 17  1  0
 17 18  1  0
 18 19  2  0
 18 20  1  0
 20 21  2  0
 21 22  1  0
 22 23  2  0
 23 24  1  0
 24 25  2  0
 16  7  1  0
 25 20  1  0
 15  9  1  0
  1 26  1  0
  1 27  1  0
  1 28  1  0
  2 29  1  0
  3 30  1  0
  3 31  1  0
  5 32  1  0
  5 33  1  0
  5 34  1  0
  6 35  1  0
  6 36  1  0
 10 37  1  0
 11 38  1  0
 14 39  1  0
 17 40  1  0
 21 41  1  0
 22 42  1  0
 23 43  1  0
 24 44  1  0
 25 45  1  0
M  END
>  <Energy>  (642) 
1388.0810280554565

>  <compound_id>  (642) 
76576

>  <target_id>  (642) 
1

>  <reference_id>  (642) 
120

>  <inspiration_ids>  (642) 
[2, 120]

>  <energy_score>  (642) 
1265.0946043532867

>  <distance_score>  (642) 
9.655474013271071

>  <path>  (642) 
/opt/xchem-fragalysis-2/maxwin/BulkDock/SCRATCH/511022/C76576-P120/C76576-P120.minimised.mol

>  <scratch_subdir>  (642) 
/opt/xchem-fragalysis-2/maxwin/BulkDock/SCRATCH/511022/C76576-P120

>  <fragmenstein_runtime>  (642) 
23.73805046081543

>  <fragmenstein_outcome>  (642) 
too moved

>  <fragmenstein_mode>  (642) 
expansion

>  <fragmenstein_error>  (642) 


$$$$
C11098-P2
     RDKit          3D

 42 44  0  0  0  0  0  0  0  0999 V2000
    9.1367   -6.5197    7.7453 C   0  0  0  0  0  0  0  0  0  0  0  0
    9.7057   -7.9370    7.6058 C   0  0  0  0  0  0  0  0  0  0  0  0
   10.8518   -8.1834    8.6718 C   0  0  0  0  0  0  0  0  0  0  0  0
   12.1432   -7.4377    8.4262 N   0  0  0  0  0  0  0  0  0  0  0  0
   13.2720   -8.3688    8.5054 C   0  0  0  0  0  0  0  0  0  0  0  0
   12.3809   -6.2760    9.3319 C   0  0  0  0  0  0  0  0  0  0  0  0
   13.5578   -5.3578    8.9700 C   0  0  0  0  0  0  0  0  0  0  0  0
   13.8252   -4.7280    7.8327 N   0  0  0  0  0  0  0  0  0  0  0  0
   14.7554   -3.7678    8.1745 C   0  0  0  0  0  0  0  0  0  0  0  0
   15.2892   -2.6917    7.4455 C   0  0  0  0  0  0  0  0  0  0  0  0
   16.0681   -1.7385    8.1244 C   0  0  0  0  0  0  0  0  0  0  0  0
   16.3217   -1.8708    9.4877 C   0  0  0  0  0  0  0  0  0  0  0  0
   17.0435   -0.9285   10.1090 F   0  0  0  0  0  0  0  0  0  0  0  0
   15.8411   -2.9509   10.2245 C   0  0  0  0  0  0  0  0  0  0  0  0
   15.0693   -3.8770    9.5186 C   0  0  0  0  0  0  0  0  0  0  0  0
   14.3478   -4.9312   10.0158 O   0  0  0  0  0  0  0  0  0  0  0  0
    8.5722   -8.9279    7.5592 N   0  0  0  0  0  0  0  0  0  0  0  0
    8.5398  -10.3180    7.1443 C   0  0  0  0  0  0  0  0  0  0  0  0
    9.4247  -11.0515    6.8088 O   0  0  0  0  0  0  0  0  0  0  0  0
    7.1416  -10.9227    7.0981 C   0  0  0  0  0  0  0  0  0  0  0  0
    6.8060  -12.2830    7.1344 C   0  0  0  0  0  0  0  0  0  0  0  0
    5.3993  -12.5593    7.0530 C   0  0  0  0  0  0  0  0  0  0  0  0
    4.6742  -11.4008    6.9193 C   0  0  0  0  0  0  0  0  0  0  0  0
    5.6971  -10.0170    6.8611 S   0  0  0  0  0  0  0  0  0  0  0  0
    9.9157   -5.7555    7.6992 H   0  0  0  0  0  0  0  0  0  0  0  0
    8.4349   -6.3171    6.9278 H   0  0  0  0  0  0  0  0  0  0  0  0
    8.5742   -6.4114    8.6743 H   0  0  0  0  0  0  0  0  0  0  0  0
   10.1748   -8.0298    6.6178 H   0  0  0  0  0  0  0  0  0  0  0  0
   11.0521   -9.2634    8.6380 H   0  0  0  0  0  0  0  0  0  0  0  0
   10.4707   -8.0116    9.6747 H   0  0  0  0  0  0  0  0  0  0  0  0
   13.3669   -8.8123    9.5025 H   0  0  0  0  0  0  0  0  0  0  0  0
   14.2176   -7.8774    8.2529 H   0  0  0  0  0  0  0  0  0  0  0  0
   13.1516   -9.1789    7.7768 H   0  0  0  0  0  0  0  0  0  0  0  0
   11.5047   -5.6306    9.2699 H   0  0  0  0  0  0  0  0  0  0  0  0
   12.4770   -6.6098   10.3684 H   0  0  0  0  0  0  0  0  0  0  0  0
   15.0480   -2.5740    6.3944 H   0  0  0  0  0  0  0  0  0  0  0  0
   16.4651   -0.8802    7.5893 H   0  0  0  0  0  0  0  0  0  0  0  0
   15.9948   -3.0031   11.2917 H   0  0  0  0  0  0  0  0  0  0  0  0
    7.6428   -8.6487    7.8522 H   0  0  0  0  0  0  0  0  0  0  0  0
    7.5664  -13.0506    7.2322 H   0  0  0  0  0  0  0  0  0  0  0  0
    4.9622  -13.5496    7.0855 H   0  0  0  0  0  0  0  0  0  0  0  0
    3.6019  -11.2897    6.8293 H   0  0  0  0  0  0  0  0  0  0  0  0
  1  2  1  0
  2  3  1  0
  3  4  1  0
  4  5  1  0
  4  6  1  0
  6  7  1  0
  7  8  2  0
  8  9  1  0
  9 10  2  0
 10 11  1  0
 11 12  2  0
 12 13  1  0
 12 14  1  0
 14 15  2  0
 15 16  1  0
  2 17  1  0
 17 18  1  0
 18 19  2  0
 18 20  1  0
 20 21  2  0
 21 22  1  0
 22 23  2  0
 23 24  1  0
 16  7  1  0
 24 20  1  0
 15  9  1  0
  1 25  1  0
  1 26  1  0
  1 27  1  0
  2 28  1  0
  3 29  1  0
  3 30  1  0
  5 31  1  0
  5 32  1  0
  5 33  1  0
  6 34  1  0
  6 35  1  0
 10 36  1  0
 11 37  1  0
 14 38  1  0
 17 39  1  0
 21 40  1  0
 22 41  1  0
 23 42  1  0
M  END
>  <Energy>  (643) 
72.422655966160363

>  <compound_id>  (643) 
11098

>  <target_id>  (643) 
1

>  <reference_id>  (643) 
2

>  <inspiration_ids>  (643) 
[2, 120]

>  <energy_score>  (643) 
-43.68595883223725

>  <distance_score>  (643) 
13.1196651689416

>  <path>  (643) 
/opt/xchem-fragalysis-2/maxwin/BulkDock/SCRATCH/511022/C11098-P2/C11098-P2.minimised.mol

>  <scratch_subdir>  (643) 
/opt/xchem-fragalysis-2/maxwin/BulkDock/SCRATCH/511022/C11098-P2

>  <fragmenstein_runtime>  (643) 
25.565386533737183

>  <fragmenstein_outcome>  (643) 
too moved

>  <fragmenstein_mode>  (643) 
expansion

>  <fragmenstein_error>  (643) 


$$$$
C11098-P120
     RDKit          3D

 42 44  0  0  0  0  0  0  0  0999 V2000
    7.2395   -7.3622    8.9987 C   0  0  0  0  0  0  0  0  0  0  0  0
    6.3856   -7.2925   10.3380 C   0  0  0  0  0  0  0  0  0  0  0  0
    7.5975   -7.0446   12.2058 C   0  0  0  0  0  0  0  0  0  0  0  0
    8.5431   -5.9742   13.8238 N   0  0  0  0  0  0  0  0  0  0  0  0
    8.1689   -6.8063   14.9836 C   0  0  0  0  0  0  0  0  0  0  0  0
   10.1888   -4.9205   14.3085 C   0  0  0  0  0  0  0  0  0  0  0  0
   10.4448   -3.3963   14.7410 C   0  0  0  0  0  0  0  0  0  0  0  0
   11.6730   -2.8858   14.8177 N   0  0  0  0  0  0  0  0  0  0  0  0
   11.4810   -1.5508   15.0103 C   0  0  0  0  0  0  0  0  0  0  0  0
   12.3943   -0.4856   15.0667 C   0  0  0  0  0  0  0  0  0  0  0  0
   11.8858    0.8093   15.2407 C   0  0  0  0  0  0  0  0  0  0  0  0
   10.5113    1.0149   15.3742 C   0  0  0  0  0  0  0  0  0  0  0  0
   10.0542    2.2638   15.5410 F   0  0  0  0  0  0  0  0  0  0  0  0
    9.5906   -0.0351   15.3499 C   0  0  0  0  0  0  0  0  0  0  0  0
   10.1259   -1.2993   15.1470 C   0  0  0  0  0  0  0  0  0  0  0  0
    9.4481   -2.4886   14.9879 O   0  0  0  0  0  0  0  0  0  0  0  0
    4.6595   -8.2967   10.2907 N   0  0  0  0  0  0  0  0  0  0  0  0
    4.2449   -9.9094    9.5770 C   0  0  0  0  0  0  0  0  0  0  0  0
    4.9271  -10.6687    8.8611 O   0  0  0  0  0  0  0  0  0  0  0  0
    2.8891  -10.5733   10.0022 C   0  0  0  0  0  0  0  0  0  0  0  0
    1.7501  -10.2044   10.7325 C   0  0  0  0  0  0  0  0  0  0  0  0
    0.8526  -11.1274   11.3410 C   0  0  0  0  0  0  0  0  0  0  0  0
    1.3123  -12.3562   11.1127 C   0  0  0  0  0  0  0  0  0  0  0  0
    2.9725  -12.3429   10.1958 S   0  0  0  0  0  0  0  0  0  0  0  0
    7.3657   -6.3615    8.5689 H   0  0  0  0  0  0  0  0  0  0  0  0
    6.7320   -7.9806    8.2523 H   0  0  0  0  0  0  0  0  0  0  0  0
    8.2459   -7.7593    9.1688 H   0  0  0  0  0  0  0  0  0  0  0  0
    5.7213   -6.4644    9.9959 H   0  0  0  0  0  0  0  0  0  0  0  0
    8.3739   -7.6302   11.7469 H   0  0  0  0  0  0  0  0  0  0  0  0
    7.0007   -7.6982   12.8360 H   0  0  0  0  0  0  0  0  0  0  0  0
    7.3243   -7.5372   14.7504 H   0  0  0  0  0  0  0  0  0  0  0  0
    9.1744   -7.2868   15.1378 H   0  0  0  0  0  0  0  0  0  0  0  0
    7.5753   -6.2389   15.7356 H   0  0  0  0  0  0  0  0  0  0  0  0
   10.8411   -4.8922   13.4048 H   0  0  0  0  0  0  0  0  0  0  0  0
   10.7798   -5.3374   15.0998 H   0  0  0  0  0  0  0  0  0  0  0  0
   13.4575   -0.6672   14.9551 H   0  0  0  0  0  0  0  0  0  0  0  0
   12.5591    1.6614   15.2745 H   0  0  0  0  0  0  0  0  0  0  0  0
    8.5259    0.1252   15.4215 H   0  0  0  0  0  0  0  0  0  0  0  0
    3.8659   -7.9308   10.8175 H   0  0  0  0  0  0  0  0  0  0  0  0
    1.4653   -9.1861   10.8583 H   0  0  0  0  0  0  0  0  0  0  0  0
   -0.0891  -10.9580   11.8363 H   0  0  0  0  0  0  0  0  0  0  0  0
    0.8342  -13.2731   11.4700 H   0  0  0  0  0  0  0  0  0  0  0  0
  1  2  1  0
  2  3  1  0
  3  4  1  0
  4  5  1  0
  4  6  1  0
  6  7  1  0
  7  8  2  0
  8  9  1  0
  9 10  2  0
 10 11  1  0
 11 12  2  0
 12 13  1  0
 12 14  1  0
 14 15  2  0
 15 16  1  0
  2 17  1  0
 17 18  1  0
 18 19  2  0
 18 20  1  0
 20 21  2  0
 21 22  1  0
 22 23  2  0
 23 24  1  0
 16  7  1  0
 24 20  1  0
 15  9  1  0
  1 25  1  0
  1 26  1  0
  1 27  1  0
  2 28  1  0
  3 29  1  0
  3 30  1  0
  5 31  1  0
  5 32  1  0
  5 33  1  0
  6 34  1  0
  6 35  1  0
 10 36  1  0
 11 37  1  0
 14 38  1  0
 17 39  1  0
 21 40  1  0
 22 41  1  0
 23 42  1  0
M  END
>  <Energy>  (644) 
718.67528242739252

>  <compound_id>  (644) 
11098

>  <target_id>  (644) 
1

>  <reference_id>  (644) 
120

>  <inspiration_ids>  (644) 
[2, 120]

>  <energy_score>  (644) 
602.566667628997

>  <distance_score>  (644) 
10.78304463331814

>  <path>  (644) 
/opt/xchem-fragalysis-2/maxwin/BulkDock/SCRATCH/511022/C11098-P120/C11098-P120.minimised.mol

>  <scratch_subdir>  (644) 
/opt/xchem-fragalysis-2/maxwin/BulkDock/SCRATCH/511022/C11098-P120

>  <fragmenstein_runtime>  (644) 
14.318325281143188

>  <fragmenstein_outcome>  (644) 
too moved

>  <fragmenstein_mode>  (644) 
expansion

>  <fragmenstein_error>  (644) 


$$$$
C76578-P2
     RDKit          3D

 45 47  0  0  0  0  0  0  0  0999 V2000
    1.9794  -18.5829    9.9540 C   0  0  0  0  0  0  0  0  0  0  0  0
    2.8485  -18.6781   11.1613 C   0  0  0  0  0  0  0  0  0  0  0  0
    2.8653  -19.6388   12.0578 N   0  0  0  0  0  0  0  0  0  0  0  0
    3.6702  -19.1296   13.0576 C   0  0  0  0  0  0  0  0  0  0  0  0
    3.9168  -19.6320   14.3361 C   0  0  0  0  0  0  0  0  0  0  0  0
    4.7056  -18.8673   15.2176 C   0  0  0  0  0  0  0  0  0  0  0  0
    5.2722  -17.6206   14.8686 C   0  0  0  0  0  0  0  0  0  0  0  0
    5.0674  -17.0456   13.5949 C   0  0  0  0  0  0  0  0  0  0  0  0
    5.5737  -15.2616   13.2292 C   0  0  0  0  0  0  0  0  0  0  0  0
    6.7009  -13.8372   14.0518 N   0  0  0  0  0  0  0  0  0  0  0  0
    6.0434  -12.6577   13.6093 C   0  0  0  0  0  0  0  0  0  0  0  0
    8.2678  -14.0240   15.1414 C   0  0  0  0  0  0  0  0  0  0  0  0
    9.0198  -15.4926   15.7994 C   0  0  0  0  0  0  0  0  0  0  0  0
    9.5164  -15.6591   17.2763 C   0  0  0  0  0  0  0  0  0  0  0  0
   10.6372  -14.8107   17.6024 N   0  0  0  0  0  0  0  0  0  0  0  0
    8.9450  -16.4864   17.9335 O   0  0  0  0  0  0  0  0  0  0  0  0
    9.6104  -12.7816   15.2809 C   0  0  0  0  0  0  0  0  0  0  0  0
    9.5528  -11.5882   16.0545 C   0  0  0  0  0  0  0  0  0  0  0  0
   10.5621  -10.6026   16.0326 C   0  0  0  0  0  0  0  0  0  0  0  0
   11.7172  -10.7944   15.2979 C   0  0  0  0  0  0  0  0  0  0  0  0
   11.8633  -11.9896   14.6027 C   0  0  0  0  0  0  0  0  0  0  0  0
   10.8486  -12.9792   14.6083 C   0  0  0  0  0  0  0  0  0  0  0  0
    4.2253  -17.8931   12.7103 C   0  0  0  0  0  0  0  0  0  0  0  0
    3.7274  -17.6374   11.4289 O   0  0  0  0  0  0  0  0  0  0  0  0
    1.3439  -17.6949   10.0175 H   0  0  0  0  0  0  0  0  0  0  0  0
    1.3382  -19.4651    9.8707 H   0  0  0  0  0  0  0  0  0  0  0  0
    2.5939  -18.5120    9.0520 H   0  0  0  0  0  0  0  0  0  0  0  0
    3.4766  -20.5715   14.6493 H   0  0  0  0  0  0  0  0  0  0  0  0
    4.8782  -19.2504   16.2233 H   0  0  0  0  0  0  0  0  0  0  0  0
    5.8419  -17.0773   15.6204 H   0  0  0  0  0  0  0  0  0  0  0  0
    5.1341  -14.9906   14.0334 H   0  0  0  0  0  0  0  0  0  0  0  0
    5.5091  -14.9549   12.1575 H   0  0  0  0  0  0  0  0  0  0  0  0
    6.2306  -11.6078   13.5616 H   0  0  0  0  0  0  0  0  0  0  0  0
    6.2402  -13.0720   12.6696 H   0  0  0  0  0  0  0  0  0  0  0  0
    5.0698  -12.5286   14.0319 H   0  0  0  0  0  0  0  0  0  0  0  0
    8.7053  -14.4681   14.3697 H   0  0  0  0  0  0  0  0  0  0  0  0
    9.9255  -15.7242   15.2188 H   0  0  0  0  0  0  0  0  0  0  0  0
    8.3398  -16.3362   15.6201 H   0  0  0  0  0  0  0  0  0  0  0  0
   10.9355  -14.3043   16.7505 H   0  0  0  0  0  0  0  0  0  0  0  0
   10.7861  -14.1385   16.8314 H   0  0  0  0  0  0  0  0  0  0  0  0
    8.7117  -11.3573   16.6976 H   0  0  0  0  0  0  0  0  0  0  0  0
   10.4238   -9.6902   16.6015 H   0  0  0  0  0  0  0  0  0  0  0  0
   12.5030  -10.0442   15.2936 H   0  0  0  0  0  0  0  0  0  0  0  0
   12.7741  -12.1676   14.0331 H   0  0  0  0  0  0  0  0  0  0  0  0
   11.0435  -13.8735   14.0228 H   0  0  0  0  0  0  0  0  0  0  0  0
  1  2  1  0
  2  3  2  0
  3  4  1  0
  4  5  2  0
  5  6  1  0
  6  7  2  0
  7  8  1  0
  8  9  1  0
  9 10  1  0
 10 11  1  0
 10 12  1  0
 12 13  1  0
 13 14  1  0
 14 15  1  0
 14 16  2  0
 12 17  1  0
 17 18  2  0
 18 19  1  0
 19 20  2  0
 20 21  1  0
 21 22  2  0
  8 23  2  0
 23 24  1  0
 24  2  1  0
 23  4  1  0
 22 17  1  0
  1 25  1  0
  1 26  1  0
  1 27  1  0
  5 28  1  0
  6 29  1  0
  7 30  1  0
  9 31  1  0
  9 32  1  0
 11 33  1  0
 11 34  1  0
 11 35  1  0
 12 36  1  0
 13 37  1  0
 13 38  1  0
 15 39  1  0
 15 40  1  0
 18 41  1  0
 19 42  1  0
 20 43  1  0
 21 44  1  0
 22 45  1  0
M  END
>  <Energy>  (645) 
572.54635008619255

>  <compound_id>  (645) 
76578

>  <target_id>  (645) 
1

>  <reference_id>  (645) 
2

>  <inspiration_ids>  (645) 
[2, 120]

>  <energy_score>  (645) 
498.42909931955126

>  <distance_score>  (645) 
14.386610814998262

>  <path>  (645) 
/opt/xchem-fragalysis-2/maxwin/BulkDock/SCRATCH/511022/C76578-P2/C76578-P2.minimised.mol

>  <scratch_subdir>  (645) 
/opt/xchem-fragalysis-2/maxwin/BulkDock/SCRATCH/511022/C76578-P2

>  <fragmenstein_runtime>  (645) 
24.743192434310913

>  <fragmenstein_outcome>  (645) 
too moved

>  <fragmenstein_mode>  (645) 
expansion

>  <fragmenstein_error>  (645) 


$$$$
C76578-P120
     RDKit          3D

 45 47  0  0  0  0  0  0  0  0999 V2000
    1.0128  -12.0251   11.1834 C   0  0  0  0  0  0  0  0  0  0  0  0
    2.5418  -12.2262   10.1753 C   0  0  0  0  0  0  0  0  0  0  0  0
    3.5769  -12.0570   10.8027 N   0  0  0  0  0  0  0  0  0  0  0  0
    3.5072  -10.7212   10.6775 C   0  0  0  0  0  0  0  0  0  0  0  0
    2.6765   -9.7668   11.0462 C   0  0  0  0  0  0  0  0  0  0  0  0
    3.2366   -8.3116   11.3980 C   0  0  0  0  0  0  0  0  0  0  0  0
    4.1607   -7.7859   10.6442 C   0  0  0  0  0  0  0  0  0  0  0  0
    4.7025   -8.3850    9.5059 C   0  0  0  0  0  0  0  0  0  0  0  0
    6.1534   -7.1441    9.3109 C   0  0  0  0  0  0  0  0  0  0  0  0
    6.3205   -5.4953    8.4330 N   0  0  0  0  0  0  0  0  0  0  0  0
    5.5230   -5.1308    7.2388 C   0  0  0  0  0  0  0  0  0  0  0  0
    7.3853   -4.3797    8.5709 C   0  0  0  0  0  0  0  0  0  0  0  0
    8.8008   -4.4307    7.8863 C   0  0  0  0  0  0  0  0  0  0  0  0
    9.0107   -4.5237    6.3548 C   0  0  0  0  0  0  0  0  0  0  0  0
   10.4123   -4.8230    6.0796 N   0  0  0  0  0  0  0  0  0  0  0  0
    8.1059   -4.2860    5.6095 O   0  0  0  0  0  0  0  0  0  0  0  0
    6.8820   -2.8745    8.5957 C   0  0  0  0  0  0  0  0  0  0  0  0
    7.3302   -1.9162    7.6598 C   0  0  0  0  0  0  0  0  0  0  0  0
    7.1054   -0.5427    7.8287 C   0  0  0  0  0  0  0  0  0  0  0  0
    6.4033   -0.0818    8.9322 C   0  0  0  0  0  0  0  0  0  0  0  0
    5.8990   -0.9957    9.8434 C   0  0  0  0  0  0  0  0  0  0  0  0
    6.1060   -2.3695    9.6561 C   0  0  0  0  0  0  0  0  0  0  0  0
    4.2165  -10.1582    9.6188 C   0  0  0  0  0  0  0  0  0  0  0  0
    3.0317  -11.1575    8.9009 O   0  0  0  0  0  0  0  0  0  0  0  0
    0.2092  -11.3753   10.8330 H   0  0  0  0  0  0  0  0  0  0  0  0
    1.2342  -11.4394   12.0682 H   0  0  0  0  0  0  0  0  0  0  0  0
    0.6246  -13.0027   11.4992 H   0  0  0  0  0  0  0  0  0  0  0  0
    1.6033   -9.8579   10.9766 H   0  0  0  0  0  0  0  0  0  0  0  0
    2.4954   -7.4889   11.5556 H   0  0  0  0  0  0  0  0  0  0  0  0
    4.4555   -6.8378   11.1710 H   0  0  0  0  0  0  0  0  0  0  0  0
    6.9998   -7.3943    9.8880 H   0  0  0  0  0  0  0  0  0  0  0  0
    5.7376   -6.5425   10.0472 H   0  0  0  0  0  0  0  0  0  0  0  0
    5.2319   -5.9616    6.6137 H   0  0  0  0  0  0  0  0  0  0  0  0
    4.6613   -4.5099    7.4846 H   0  0  0  0  0  0  0  0  0  0  0  0
    6.0814   -4.5000    6.5466 H   0  0  0  0  0  0  0  0  0  0  0  0
    7.6803   -4.4517    9.5856 H   0  0  0  0  0  0  0  0  0  0  0  0
    9.3366   -3.5088    8.1237 H   0  0  0  0  0  0  0  0  0  0  0  0
    9.4069   -5.1623    8.4197 H   0  0  0  0  0  0  0  0  0  0  0  0
   10.9332   -4.8604    6.9753 H   0  0  0  0  0  0  0  0  0  0  0  0
   10.8816   -5.0922    6.9643 H   0  0  0  0  0  0  0  0  0  0  0  0
    7.8862   -2.2003    6.7729 H   0  0  0  0  0  0  0  0  0  0  0  0
    7.4896    0.1631    7.0977 H   0  0  0  0  0  0  0  0  0  0  0  0
    6.2426    0.9805    9.0841 H   0  0  0  0  0  0  0  0  0  0  0  0
    5.3418   -0.6420   10.7073 H   0  0  0  0  0  0  0  0  0  0  0  0
    5.6608   -3.0077   10.4028 H   0  0  0  0  0  0  0  0  0  0  0  0
  1  2  1  0
  2  3  2  0
  3  4  1  0
  4  5  2  0
  5  6  1  0
  6  7  2  0
  7  8  1  0
  8  9  1  0
  9 10  1  0
 10 11  1  0
 10 12  1  0
 12 13  1  0
 13 14  1  0
 14 15  1  0
 14 16  2  0
 12 17  1  0
 17 18  2  0
 18 19  1  0
 19 20  2  0
 20 21  1  0
 21 22  2  0
  8 23  2  0
 23 24  1  0
 24  2  1  0
 23  4  1  0
 22 17  1  0
  1 25  1  0
  1 26  1  0
  1 27  1  0
  5 28  1  0
  6 29  1  0
  7 30  1  0
  9 31  1  0
  9 32  1  0
 11 33  1  0
 11 34  1  0
 11 35  1  0
 12 36  1  0
 13 37  1  0
 13 38  1  0
 15 39  1  0
 15 40  1  0
 18 41  1  0
 19 42  1  0
 20 43  1  0
 21 44  1  0
 22 45  1  0
M  END
>  <Energy>  (646) 
769.44985986992447

>  <compound_id>  (646) 
76578

>  <target_id>  (646) 
1

>  <reference_id>  (646) 
120

>  <inspiration_ids>  (646) 
[2, 120]

>  <energy_score>  (646) 
695.3326091032798

>  <distance_score>  (646) 
13.877470696859579

>  <path>  (646) 
/opt/xchem-fragalysis-2/maxwin/BulkDock/SCRATCH/511022/C76578-P120/C76578-P120.minimised.mol

>  <scratch_subdir>  (646) 
/opt/xchem-fragalysis-2/maxwin/BulkDock/SCRATCH/511022/C76578-P120

>  <fragmenstein_runtime>  (646) 
21.740209817886353

>  <fragmenstein_outcome>  (646) 
too moved

>  <fragmenstein_mode>  (646) 
expansion

>  <fragmenstein_error>  (646) 


$$$$
C76581-P2
     RDKit          3D

 43 45  0  0  0  0  0  0  0  0999 V2000
    0.9428  -13.1316   13.7113 C   0  0  0  0  0  0  0  0  0  0  0  0
   -0.4294  -13.0842   13.4016 C   0  0  0  0  0  0  0  0  0  0  0  0
   -1.3832  -14.4302   14.6272 C   0  0  0  0  0  0  0  0  0  0  0  0
   -2.9890  -15.7505   14.8587 N   0  0  0  0  0  0  0  0  0  0  0  0
   -4.6773  -15.8955   13.8918 C   0  0  0  0  0  0  0  0  0  0  0  0
   -4.9139  -15.0006   13.0316 O   0  0  0  0  0  0  0  0  0  0  0  0
   -5.8997  -16.7814   14.0174 C   0  0  0  0  0  0  0  0  0  0  0  0
   -7.1904  -15.9604   15.1759 C   0  0  0  0  0  0  0  0  0  0  0  0
   -6.9615  -17.8238   12.9532 C   0  0  0  0  0  0  0  0  0  0  0  0
   -8.5767  -17.4610   13.1597 C   0  0  0  0  0  0  0  0  0  0  0  0
   -9.5661  -18.2995   12.5386 C   0  0  0  0  0  0  0  0  0  0  0  0
   -9.0907  -19.5289   11.6957 C   0  0  0  0  0  0  0  0  0  0  0  0
   -7.6454  -19.8669   11.5622 C   0  0  0  0  0  0  0  0  0  0  0  0
   -6.6040  -19.0365   12.2152 C   0  0  0  0  0  0  0  0  0  0  0  0
    0.1044  -12.4066   11.7776 C   0  0  0  0  0  0  0  0  0  0  0  0
    1.2204  -12.7652   11.1458 N   0  0  0  0  0  0  0  0  0  0  0  0
    2.1955  -11.6244   10.9231 C   0  0  0  0  0  0  0  0  0  0  0  0
    3.5157  -11.5363   10.3377 C   0  0  0  0  0  0  0  0  0  0  0  0
    4.0449  -10.2975    9.9367 C   0  0  0  0  0  0  0  0  0  0  0  0
    3.2257   -9.1813    9.9426 C   0  0  0  0  0  0  0  0  0  0  0  0
    1.8929   -9.2787   10.4090 C   0  0  0  0  0  0  0  0  0  0  0  0
    1.4178  -10.5016   11.0437 C   0  0  0  0  0  0  0  0  0  0  0  0
    0.1952  -10.9577   11.6872 O   0  0  0  0  0  0  0  0  0  0  0  0
    1.5214  -12.8916   14.6083 H   0  0  0  0  0  0  0  0  0  0  0  0
    1.1380  -12.1141   13.5442 H   0  0  0  0  0  0  0  0  0  0  0  0
    1.2484  -13.9569   13.0772 H   0  0  0  0  0  0  0  0  0  0  0  0
   -0.7752  -12.1039   13.6612 H   0  0  0  0  0  0  0  0  0  0  0  0
   -1.8964  -13.9877   13.8603 H   0  0  0  0  0  0  0  0  0  0  0  0
   -0.6482  -14.8657   13.7922 H   0  0  0  0  0  0  0  0  0  0  0  0
   -2.8920  -16.5706   15.4479 H   0  0  0  0  0  0  0  0  0  0  0  0
   -5.9899  -16.4258   13.0342 H   0  0  0  0  0  0  0  0  0  0  0  0
   -8.0547  -16.5397   15.5353 H   0  0  0  0  0  0  0  0  0  0  0  0
   -6.7033  -15.6958   16.1251 H   0  0  0  0  0  0  0  0  0  0  0  0
   -7.6397  -15.0718   14.7450 H   0  0  0  0  0  0  0  0  0  0  0  0
   -8.9617  -16.7411   13.8625 H   0  0  0  0  0  0  0  0  0  0  0  0
  -10.5280  -18.1263   13.0039 H   0  0  0  0  0  0  0  0  0  0  0  0
   -9.7515  -20.2627   11.3013 H   0  0  0  0  0  0  0  0  0  0  0  0
   -7.3666  -20.7734   11.0389 H   0  0  0  0  0  0  0  0  0  0  0  0
   -5.5902  -19.4110   12.1870 H   0  0  0  0  0  0  0  0  0  0  0  0
    4.0791  -12.4508   10.1793 H   0  0  0  0  0  0  0  0  0  0  0  0
    5.0523  -10.2411    9.5339 H   0  0  0  0  0  0  0  0  0  0  0  0
    3.5930   -8.2314    9.5620 H   0  0  0  0  0  0  0  0  0  0  0  0
    1.3071   -8.3769   10.3676 H   0  0  0  0  0  0  0  0  0  0  0  0
  1  2  1  0
  2  3  1  0
  3  4  1  0
  4  5  1  0
  5  6  2  0
  5  7  1  0
  7  8  1  0
  7  9  1  0
  9 10  2  0
 10 11  1  0
 11 12  2  0
 12 13  1  0
 13 14  2  0
  2 15  1  0
 15 16  2  0
 16 17  1  0
 17 18  2  0
 18 19  1  0
 19 20  2  0
 20 21  1  0
 21 22  2  0
 22 23  1  0
 14  9  1  0
 23 15  1  0
 22 17  1  0
  1 24  1  0
  1 25  1  0
  1 26  1  0
  2 27  1  0
  3 28  1  0
  3 29  1  0
  4 30  1  0
  7 31  1  0
  8 32  1  0
  8 33  1  0
  8 34  1  0
 10 35  1  0
 11 36  1  0
 12 37  1  0
 13 38  1  0
 14 39  1  0
 18 40  1  0
 19 41  1  0
 20 42  1  0
 21 43  1  0
M  END
>  <Energy>  (647) 
826.85121865004783

>  <compound_id>  (647) 
76581

>  <target_id>  (647) 
1

>  <reference_id>  (647) 
2

>  <inspiration_ids>  (647) 
[2, 120]

>  <energy_score>  (647) 
752.8813723927126

>  <distance_score>  (647) 
14.620657337577775

>  <path>  (647) 
/opt/xchem-fragalysis-2/maxwin/BulkDock/SCRATCH/511022/C76581-P2/C76581-P2.minimised.mol

>  <scratch_subdir>  (647) 
/opt/xchem-fragalysis-2/maxwin/BulkDock/SCRATCH/511022/C76581-P2

>  <fragmenstein_runtime>  (647) 
22.47388982772827

>  <fragmenstein_outcome>  (647) 
too moved

>  <fragmenstein_mode>  (647) 
expansion

>  <fragmenstein_error>  (647) 


$$$$
C76581-P120
     RDKit          3D

 43 45  0  0  0  0  0  0  0  0999 V2000
    4.8789  -10.3980   16.0782 C   0  0  0  0  0  0  0  0  0  0  0  0
    4.5018   -9.5541   14.8535 C   0  0  0  0  0  0  0  0  0  0  0  0
    3.7022  -10.4513   13.6055 C   0  0  0  0  0  0  0  0  0  0  0  0
    1.9479  -11.2289   13.2654 N   0  0  0  0  0  0  0  0  0  0  0  0
    1.0778  -12.6038   14.0271 C   0  0  0  0  0  0  0  0  0  0  0  0
    1.6183  -13.0755   14.9446 O   0  0  0  0  0  0  0  0  0  0  0  0
   -0.5916  -13.6758   13.6031 C   0  0  0  0  0  0  0  0  0  0  0  0
   -0.1955  -13.7995   12.0341 C   0  0  0  0  0  0  0  0  0  0  0  0
   -2.2828  -14.6318   14.4549 C   0  0  0  0  0  0  0  0  0  0  0  0
   -3.6053  -14.4198   13.0788 C   0  0  0  0  0  0  0  0  0  0  0  0
   -5.1625  -15.0546   13.0038 C   0  0  0  0  0  0  0  0  0  0  0  0
   -5.1540  -16.4114   14.0868 C   0  0  0  0  0  0  0  0  0  0  0  0
   -4.0408  -16.5002   15.2162 C   0  0  0  0  0  0  0  0  0  0  0  0
   -2.7936  -15.3774   15.5003 C   0  0  0  0  0  0  0  0  0  0  0  0
    4.2804   -8.1152   15.2841 C   0  0  0  0  0  0  0  0  0  0  0  0
    4.5736   -6.9904   14.6534 N   0  0  0  0  0  0  0  0  0  0  0  0
    4.1005   -5.9814   15.4796 C   0  0  0  0  0  0  0  0  0  0  0  0
    3.8729   -4.6061   15.2519 C   0  0  0  0  0  0  0  0  0  0  0  0
    3.3215   -3.8326   16.2767 C   0  0  0  0  0  0  0  0  0  0  0  0
    3.0351   -4.4115   17.5158 C   0  0  0  0  0  0  0  0  0  0  0  0
    3.2458   -5.7815   17.7576 C   0  0  0  0  0  0  0  0  0  0  0  0
    3.7285   -6.5294   16.6901 C   0  0  0  0  0  0  0  0  0  0  0  0
    3.8536   -7.8913   16.5865 O   0  0  0  0  0  0  0  0  0  0  0  0
    3.9974  -10.6654   16.6664 H   0  0  0  0  0  0  0  0  0  0  0  0
    5.3809  -11.3209   15.7782 H   0  0  0  0  0  0  0  0  0  0  0  0
    5.5686   -9.8697   16.7445 H   0  0  0  0  0  0  0  0  0  0  0  0
    5.4810   -9.4418   14.3504 H   0  0  0  0  0  0  0  0  0  0  0  0
    4.0858  -10.1221   12.6150 H   0  0  0  0  0  0  0  0  0  0  0  0
    4.3729  -11.2829   13.8712 H   0  0  0  0  0  0  0  0  0  0  0  0
    1.4277  -10.9558   12.4252 H   0  0  0  0  0  0  0  0  0  0  0  0
   -0.0131  -14.5681   13.6578 H   0  0  0  0  0  0  0  0  0  0  0  0
   -0.0204  -12.7958   11.6405 H   0  0  0  0  0  0  0  0  0  0  0  0
    0.7321  -14.3499   11.9585 H   0  0  0  0  0  0  0  0  0  0  0  0
   -0.8584  -14.3826   11.3931 H   0  0  0  0  0  0  0  0  0  0  0  0
   -3.2382  -14.4488   12.0364 H   0  0  0  0  0  0  0  0  0  0  0  0
   -5.6924  -15.1193   12.0673 H   0  0  0  0  0  0  0  0  0  0  0  0
   -6.0116  -17.0815   14.0524 H   0  0  0  0  0  0  0  0  0  0  0  0
   -4.2747  -17.1732   16.0455 H   0  0  0  0  0  0  0  0  0  0  0  0
   -2.4886  -15.1210   16.5075 H   0  0  0  0  0  0  0  0  0  0  0  0
    4.0652   -4.1543   14.2840 H   0  0  0  0  0  0  0  0  0  0  0  0
    3.1236   -2.7761   16.1102 H   0  0  0  0  0  0  0  0  0  0  0  0
    2.6175   -3.7946   18.3103 H   0  0  0  0  0  0  0  0  0  0  0  0
    2.9703   -6.2470   18.6968 H   0  0  0  0  0  0  0  0  0  0  0  0
  1  2  1  0
  2  3  1  0
  3  4  1  0
  4  5  1  0
  5  6  2  0
  5  7  1  0
  7  8  1  0
  7  9  1  0
  9 10  2  0
 10 11  1  0
 11 12  2  0
 12 13  1  0
 13 14  2  0
  2 15  1  0
 15 16  2  0
 16 17  1  0
 17 18  2  0
 18 19  1  0
 19 20  2  0
 20 21  1  0
 21 22  2  0
 22 23  1  0
 14  9  1  0
 23 15  1  0
 22 17  1  0
  1 24  1  0
  1 25  1  0
  1 26  1  0
  2 27  1  0
  3 28  1  0
  3 29  1  0
  4 30  1  0
  7 31  1  0
  8 32  1  0
  8 33  1  0
  8 34  1  0
 10 35  1  0
 11 36  1  0
 12 37  1  0
 13 38  1  0
 14 39  1  0
 18 40  1  0
 19 41  1  0
 20 42  1  0
 21 43  1  0
M  END
>  <Energy>  (648) 
679.73055776183969

>  <compound_id>  (648) 
76581

>  <target_id>  (648) 
1

>  <reference_id>  (648) 
120

>  <inspiration_ids>  (648) 
[2, 120]

>  <energy_score>  (648) 
605.7607115045053

>  <distance_score>  (648) 
11.7549824225649

>  <path>  (648) 
/opt/xchem-fragalysis-2/maxwin/BulkDock/SCRATCH/511022/C76581-P120/C76581-P120.minimised.mol

>  <scratch_subdir>  (648) 
/opt/xchem-fragalysis-2/maxwin/BulkDock/SCRATCH/511022/C76581-P120

>  <fragmenstein_runtime>  (648) 
25.04628276824951

>  <fragmenstein_outcome>  (648) 
too moved

>  <fragmenstein_mode>  (648) 
expansion

>  <fragmenstein_error>  (648) 


$$$$
C76582-P2
     RDKit          3D

 43 45  0  0  0  0  0  0  0  0999 V2000
   10.1217   -3.8649   14.9162 C   0  0  0  0  0  0  0  0  0  0  0  0
    8.3098   -3.6870   15.2242 C   0  0  0  0  0  0  0  0  0  0  0  0
    7.4094   -5.4446   15.9665 C   0  0  0  0  0  0  0  0  0  0  0  0
    5.9405   -6.5755   16.0915 N   0  0  0  0  0  0  0  0  0  0  0  0
    5.5352   -7.5152   15.7263 C   0  0  0  0  0  0  0  0  0  0  0  0
    6.6122   -7.9449   14.6307 O   0  0  0  0  0  0  0  0  0  0  0  0
    4.5167   -8.5754   15.8686 C   0  0  0  0  0  0  0  0  0  0  0  0
    5.0880   -9.9836   15.4501 C   0  0  0  0  0  0  0  0  0  0  0  0
    5.3937  -10.4251   14.0060 C   0  0  0  0  0  0  0  0  0  0  0  0
    6.1143  -11.6147   13.7913 C   0  0  0  0  0  0  0  0  0  0  0  0
    6.3859  -12.1128   12.5003 C   0  0  0  0  0  0  0  0  0  0  0  0
    5.9232  -11.4379   11.3752 C   0  0  0  0  0  0  0  0  0  0  0  0
    5.2792  -10.2177   11.5532 C   0  0  0  0  0  0  0  0  0  0  0  0
    5.0615   -9.7090   12.8517 C   0  0  0  0  0  0  0  0  0  0  0  0
    8.7449   -1.9388   15.5616 C   0  0  0  0  0  0  0  0  0  0  0  0
   10.0395   -1.6367   15.7169 N   0  0  0  0  0  0  0  0  0  0  0  0
   10.1781   -0.3118   15.6452 C   0  0  0  0  0  0  0  0  0  0  0  0
   11.3444    0.4637   15.5554 C   0  0  0  0  0  0  0  0  0  0  0  0
   11.2331    1.8437   15.7038 C   0  0  0  0  0  0  0  0  0  0  0  0
    9.9926    2.4065   15.9844 C   0  0  0  0  0  0  0  0  0  0  0  0
    8.8274    1.6164   16.0659 C   0  0  0  0  0  0  0  0  0  0  0  0
    8.9290    0.2424   15.8194 C   0  0  0  0  0  0  0  0  0  0  0  0
    7.9644   -0.8073   15.7136 O   0  0  0  0  0  0  0  0  0  0  0  0
   10.7316   -3.8184   15.8312 H   0  0  0  0  0  0  0  0  0  0  0  0
   10.4930   -3.0845   14.2407 H   0  0  0  0  0  0  0  0  0  0  0  0
   10.4349   -4.7501   14.4038 H   0  0  0  0  0  0  0  0  0  0  0  0
    7.7654   -3.2664   14.3504 H   0  0  0  0  0  0  0  0  0  0  0  0
    7.3609   -5.5608   17.0330 H   0  0  0  0  0  0  0  0  0  0  0  0
    7.9079   -6.1594   15.3166 H   0  0  0  0  0  0  0  0  0  0  0  0
    5.9805   -5.8037   16.6889 H   0  0  0  0  0  0  0  0  0  0  0  0
    3.6758   -8.3086   15.2513 H   0  0  0  0  0  0  0  0  0  0  0  0
    4.2000   -8.6101   16.9160 H   0  0  0  0  0  0  0  0  0  0  0  0
    6.0117  -10.1375   16.0244 H   0  0  0  0  0  0  0  0  0  0  0  0
    4.3767  -10.7247   15.8340 H   0  0  0  0  0  0  0  0  0  0  0  0
    6.5281  -12.1361   14.6465 H   0  0  0  0  0  0  0  0  0  0  0  0
    6.9609  -13.0268   12.3842 H   0  0  0  0  0  0  0  0  0  0  0  0
    6.1114  -11.8220   10.3783 H   0  0  0  0  0  0  0  0  0  0  0  0
    4.9728   -9.6286   10.6934 H   0  0  0  0  0  0  0  0  0  0  0  0
    4.6691   -8.7020   12.9412 H   0  0  0  0  0  0  0  0  0  0  0  0
   12.3073   -0.0131   15.4066 H   0  0  0  0  0  0  0  0  0  0  0  0
   12.1199    2.4706   15.6469 H   0  0  0  0  0  0  0  0  0  0  0  0
    9.9208    3.4826   16.1377 H   0  0  0  0  0  0  0  0  0  0  0  0
    7.8917    2.1111   16.2575 H   0  0  0  0  0  0  0  0  0  0  0  0
  1  2  1  0
  2  3  1  0
  3  4  1  0
  4  5  1  0
  5  6  2  0
  5  7  1  0
  7  8  1  0
  8  9  1  0
  9 10  2  0
 10 11  1  0
 11 12  2  0
 12 13  1  0
 13 14  2  0
  2 15  1  0
 15 16  2  0
 16 17  1  0
 17 18  2  0
 18 19  1  0
 19 20  2  0
 20 21  1  0
 21 22  2  0
 22 23  1  0
 14  9  1  0
 23 15  1  0
 22 17  1  0
  1 24  1  0
  1 25  1  0
  1 26  1  0
  2 27  1  0
  3 28  1  0
  3 29  1  0
  4 30  1  0
  7 31  1  0
  7 32  1  0
  8 33  1  0
  8 34  1  0
 10 35  1  0
 11 36  1  0
 12 37  1  0
 13 38  1  0
 14 39  1  0
 18 40  1  0
 19 41  1  0
 20 42  1  0
 21 43  1  0
M  END
>  <Energy>  (649) 
534.73066127544939

>  <compound_id>  (649) 
76582

>  <target_id>  (649) 
1

>  <reference_id>  (649) 
2

>  <inspiration_ids>  (649) 
[2, 120]

>  <energy_score>  (649) 
487.70463475401425

>  <distance_score>  (649) 
12.20635857608203

>  <path>  (649) 
/opt/xchem-fragalysis-2/maxwin/BulkDock/SCRATCH/511022/C76582-P2/C76582-P2.minimised.mol

>  <scratch_subdir>  (649) 
/opt/xchem-fragalysis-2/maxwin/BulkDock/SCRATCH/511022/C76582-P2

>  <fragmenstein_runtime>  (649) 
27.754375219345093

>  <fragmenstein_outcome>  (649) 
too moved

>  <fragmenstein_mode>  (649) 
expansion

>  <fragmenstein_error>  (649) 


$$$$
C76582-P120
     RDKit          3D

 43 45  0  0  0  0  0  0  0  0999 V2000
    8.5873   -4.1802   15.1554 C   0  0  0  0  0  0  0  0  0  0  0  0
    8.3006   -6.2323   14.7817 C   0  0  0  0  0  0  0  0  0  0  0  0
    6.6584   -7.8210   14.5215 C   0  0  0  0  0  0  0  0  0  0  0  0
    4.7765   -8.6315   13.8753 N   0  0  0  0  0  0  0  0  0  0  0  0
    3.8191  -10.3776   14.2268 C   0  0  0  0  0  0  0  0  0  0  0  0
    4.4000  -11.0801   15.0296 O   0  0  0  0  0  0  0  0  0  0  0  0
    1.8683  -11.3693   13.6188 C   0  0  0  0  0  0  0  0  0  0  0  0
    0.2249  -12.7514   13.3246 C   0  0  0  0  0  0  0  0  0  0  0  0
   -1.3714  -13.9001   13.9603 C   0  0  0  0  0  0  0  0  0  0  0  0
   -2.1578  -14.9563   15.1763 C   0  0  0  0  0  0  0  0  0  0  0  0
   -3.4812  -16.1715   15.1388 C   0  0  0  0  0  0  0  0  0  0  0  0
   -4.6628  -16.2802   14.1458 C   0  0  0  0  0  0  0  0  0  0  0  0
   -4.7576  -14.8730   13.0887 C   0  0  0  0  0  0  0  0  0  0  0  0
   -3.2420  -14.0998   13.2924 C   0  0  0  0  0  0  0  0  0  0  0  0
   10.1770   -5.1490   14.4964 C   0  0  0  0  0  0  0  0  0  0  0  0
   10.8604   -4.3039   13.6077 N   0  0  0  0  0  0  0  0  0  0  0  0
   11.6651   -3.3410   14.2804 C   0  0  0  0  0  0  0  0  0  0  0  0
   12.3166   -2.1720   13.8485 C   0  0  0  0  0  0  0  0  0  0  0  0
   13.0972   -1.4127   14.7342 C   0  0  0  0  0  0  0  0  0  0  0  0
   13.2611   -1.8275   16.0515 C   0  0  0  0  0  0  0  0  0  0  0  0
   12.6453   -2.9981   16.5073 C   0  0  0  0  0  0  0  0  0  0  0  0
   11.8514   -3.6913   15.5908 C   0  0  0  0  0  0  0  0  0  0  0  0
   11.1356   -4.8181   15.8390 O   0  0  0  0  0  0  0  0  0  0  0  0
    8.2509   -3.4067   14.3760 H   0  0  0  0  0  0  0  0  0  0  0  0
    9.4946   -3.5682   15.2907 H   0  0  0  0  0  0  0  0  0  0  0  0
    7.7634   -3.8566   15.7808 H   0  0  0  0  0  0  0  0  0  0  0  0
    8.9466   -7.1178   15.0970 H   0  0  0  0  0  0  0  0  0  0  0  0
    6.7584   -7.8223   13.4173 H   0  0  0  0  0  0  0  0  0  0  0  0
    6.0014   -7.2435   15.1845 H   0  0  0  0  0  0  0  0  0  0  0  0
    4.2813   -8.1458   13.1401 H   0  0  0  0  0  0  0  0  0  0  0  0
    1.7385  -12.3414   14.5053 H   0  0  0  0  0  0  0  0  0  0  0  0
    1.0990  -11.5624   14.3824 H   0  0  0  0  0  0  0  0  0  0  0  0
    0.7096  -13.6526   12.9223 H   0  0  0  0  0  0  0  0  0  0  0  0
   -0.2144  -12.2606   12.4484 H   0  0  0  0  0  0  0  0  0  0  0  0
   -1.8816  -14.6972   16.2044 H   0  0  0  0  0  0  0  0  0  0  0  0
   -3.8270  -16.5576   16.1126 H   0  0  0  0  0  0  0  0  0  0  0  0
   -5.5588  -16.8824   14.3129 H   0  0  0  0  0  0  0  0  0  0  0  0
   -5.5754  -14.6307   12.4797 H   0  0  0  0  0  0  0  0  0  0  0  0
   -3.8816  -13.3482   12.8149 H   0  0  0  0  0  0  0  0  0  0  0  0
   12.2186   -1.8566   12.8319 H   0  0  0  0  0  0  0  0  0  0  0  0
   13.5896   -0.5107   14.3789 H   0  0  0  0  0  0  0  0  0  0  0  0
   13.8849   -1.2487   16.7289 H   0  0  0  0  0  0  0  0  0  0  0  0
   12.7645   -3.3546   17.5235 H   0  0  0  0  0  0  0  0  0  0  0  0
  1  2  1  0
  2  3  1  0
  3  4  1  0
  4  5  1  0
  5  6  2  0
  5  7  1  0
  7  8  1  0
  8  9  1  0
  9 10  2  0
 10 11  1  0
 11 12  2  0
 12 13  1  0
 13 14  2  0
  2 15  1  0
 15 16  2  0
 16 17  1  0
 17 18  2  0
 18 19  1  0
 19 20  2  0
 20 21  1  0
 21 22  2  0
 22 23  1  0
 14  9  1  0
 23 15  1  0
 22 17  1  0
  1 24  1  0
  1 25  1  0
  1 26  1  0
  2 27  1  0
  3 28  1  0
  3 29  1  0
  4 30  1  0
  7 31  1  0
  7 32  1  0
  8 33  1  0
  8 34  1  0
 10 35  1  0
 11 36  1  0
 12 37  1  0
 13 38  1  0
 14 39  1  0
 18 40  1  0
 19 41  1  0
 20 42  1  0
 21 43  1  0
M  END
>  <Energy>  (650) 
2053.0054578310092

>  <compound_id>  (650) 
76582

>  <target_id>  (650) 
1

>  <reference_id>  (650) 
120

>  <inspiration_ids>  (650) 
[2, 120]

>  <energy_score>  (650) 
2005.9794313095886

>  <distance_score>  (650) 
8.127411952188318

>  <path>  (650) 
/opt/xchem-fragalysis-2/maxwin/BulkDock/SCRATCH/511022/C76582-P120/C76582-P120.minimised.mol

>  <scratch_subdir>  (650) 
/opt/xchem-fragalysis-2/maxwin/BulkDock/SCRATCH/511022/C76582-P120

>  <fragmenstein_runtime>  (650) 
30.612939596176147

>  <fragmenstein_outcome>  (650) 
too moved

>  <fragmenstein_mode>  (650) 
expansion

>  <fragmenstein_error>  (650) 


$$$$
C76583-P2
     RDKit          3D

 41 43  0  0  0  0  0  0  0  0999 V2000
    8.2895   -3.4251   14.6995 C   0  0  0  0  0  0  0  0  0  0  0  0
    8.7329   -5.3560   14.4616 C   0  0  0  0  0  0  0  0  0  0  0  0
    8.2526   -7.4052   14.1375 C   0  0  0  0  0  0  0  0  0  0  0  0
    7.0126   -8.2108   12.9041 N   0  0  0  0  0  0  0  0  0  0  0  0
    5.4558   -8.9574   13.1721 C   0  0  0  0  0  0  0  0  0  0  0  0
    4.8518   -9.0113   14.2289 O   0  0  0  0  0  0  0  0  0  0  0  0
    4.4135   -9.8457   11.7587 C   0  0  0  0  0  0  0  0  0  0  0  0
    2.6208  -10.6951   11.3217 C   0  0  0  0  0  0  0  0  0  0  0  0
    0.9894  -11.4648   11.8706 N   0  0  0  0  0  0  0  0  0  0  0  0
    0.5279  -12.4670   13.0213 C   0  0  0  0  0  0  0  0  0  0  0  0
    0.2448  -13.7509   12.6398 C   0  0  0  0  0  0  0  0  0  0  0  0
   -0.1055  -13.5210   11.3788 C   0  0  0  0  0  0  0  0  0  0  0  0
    0.0077  -12.1250   11.1810 C   0  0  0  0  0  0  0  0  0  0  0  0
   10.4923   -4.5120   14.6303 C   0  0  0  0  0  0  0  0  0  0  0  0
   11.1027   -3.7760   13.6847 N   0  0  0  0  0  0  0  0  0  0  0  0
   11.9191   -2.8765   14.3442 C   0  0  0  0  0  0  0  0  0  0  0  0
   12.7110   -1.8081   13.8888 C   0  0  0  0  0  0  0  0  0  0  0  0
   13.4841   -1.0884   14.8108 C   0  0  0  0  0  0  0  0  0  0  0  0
   13.4936   -1.4479   16.1598 C   0  0  0  0  0  0  0  0  0  0  0  0
   12.7232   -2.5222   16.6280 C   0  0  0  0  0  0  0  0  0  0  0  0
   11.9341   -3.1794   15.6872 C   0  0  0  0  0  0  0  0  0  0  0  0
   11.0370   -4.1868   15.9004 O   0  0  0  0  0  0  0  0  0  0  0  0
    7.6106   -3.2334   15.4954 H   0  0  0  0  0  0  0  0  0  0  0  0
    7.7775   -2.9548   13.8548 H   0  0  0  0  0  0  0  0  0  0  0  0
    9.1532   -2.7804   14.8791 H   0  0  0  0  0  0  0  0  0  0  0  0
    8.0258   -5.5714   15.4422 H   0  0  0  0  0  0  0  0  0  0  0  0
    7.3576   -7.6340   14.7147 H   0  0  0  0  0  0  0  0  0  0  0  0
    8.9508   -8.1278   14.5705 H   0  0  0  0  0  0  0  0  0  0  0  0
    7.3105   -8.3888   11.9502 H   0  0  0  0  0  0  0  0  0  0  0  0
    5.0963  -10.6712   11.5044 H   0  0  0  0  0  0  0  0  0  0  0  0
    4.5015   -9.1120   10.9474 H   0  0  0  0  0  0  0  0  0  0  0  0
    2.9129  -11.5811   10.7385 H   0  0  0  0  0  0  0  0  0  0  0  0
    2.6648  -10.8217   12.3650 H   0  0  0  0  0  0  0  0  0  0  0  0
    1.1279  -12.4410   13.9066 H   0  0  0  0  0  0  0  0  0  0  0  0
    0.2484  -14.6292   13.2617 H   0  0  0  0  0  0  0  0  0  0  0  0
   -0.6367  -14.2697   10.8108 H   0  0  0  0  0  0  0  0  0  0  0  0
   -0.5841  -11.5290   10.5454 H   0  0  0  0  0  0  0  0  0  0  0  0
   12.7352   -1.5563   12.8396 H   0  0  0  0  0  0  0  0  0  0  0  0
   14.1011   -0.2627   14.4636 H   0  0  0  0  0  0  0  0  0  0  0  0
   14.1230   -0.8980   16.8570 H   0  0  0  0  0  0  0  0  0  0  0  0
   12.7397   -2.8325   17.6649 H   0  0  0  0  0  0  0  0  0  0  0  0
  1  2  1  0
  2  3  1  0
  3  4  1  0
  4  5  1  0
  5  6  2  0
  5  7  1  0
  7  8  1  0
  8  9  1  0
  9 10  1  0
 10 11  2  0
 11 12  1  0
 12 13  2  0
  2 14  1  0
 14 15  2  0
 15 16  1  0
 16 17  2  0
 17 18  1  0
 18 19  2  0
 19 20  1  0
 20 21  2  0
 21 22  1  0
 13  9  1  0
 22 14  1  0
 21 16  1  0
  1 23  1  0
  1 24  1  0
  1 25  1  0
  2 26  1  0
  3 27  1  0
  3 28  1  0
  4 29  1  0
  7 30  1  0
  7 31  1  0
  8 32  1  0
  8 33  1  0
 10 34  1  0
 11 35  1  0
 12 36  1  0
 13 37  1  0
 17 38  1  0
 18 39  1  0
 19 40  1  0
 20 41  1  0
M  END
>  <Energy>  (651) 
737.32483227736577

>  <compound_id>  (651) 
76583

>  <target_id>  (651) 
1

>  <reference_id>  (651) 
2

>  <inspiration_ids>  (651) 
[2, 120]

>  <energy_score>  (651) 
714.5297059369277

>  <distance_score>  (651) 
9.884309674567637

>  <path>  (651) 
/opt/xchem-fragalysis-2/maxwin/BulkDock/SCRATCH/511022/C76583-P2/C76583-P2.minimised.mol

>  <scratch_subdir>  (651) 
/opt/xchem-fragalysis-2/maxwin/BulkDock/SCRATCH/511022/C76583-P2

>  <fragmenstein_runtime>  (651) 
16.568790197372437

>  <fragmenstein_outcome>  (651) 
too moved

>  <fragmenstein_mode>  (651) 
expansion

>  <fragmenstein_error>  (651) 


$$$$
C76583-P120
     RDKit          3D

 41 43  0  0  0  0  0  0  0  0999 V2000
    5.8081   -1.6712   12.9149 C   0  0  0  0  0  0  0  0  0  0  0  0
    5.9085   -2.0443   14.3979 C   0  0  0  0  0  0  0  0  0  0  0  0
    4.5038   -1.8200   15.0526 C   0  0  0  0  0  0  0  0  0  0  0  0
    3.6693   -3.0759   15.0646 N   0  0  0  0  0  0  0  0  0  0  0  0
    2.6463   -3.5319   15.9923 C   0  0  0  0  0  0  0  0  0  0  0  0
    2.2637   -3.0607   17.0260 O   0  0  0  0  0  0  0  0  0  0  0  0
    2.0202   -4.9006   15.5229 C   0  0  0  0  0  0  0  0  0  0  0  0
    0.8832   -5.3720   16.4759 C   0  0  0  0  0  0  0  0  0  0  0  0
    0.2260   -6.6773   16.2671 N   0  0  0  0  0  0  0  0  0  0  0  0
    0.3977   -7.7762   17.0856 C   0  0  0  0  0  0  0  0  0  0  0  0
   -0.6626   -8.6416   16.9153 C   0  0  0  0  0  0  0  0  0  0  0  0
   -1.4880   -8.0871   15.9165 C   0  0  0  0  0  0  0  0  0  0  0  0
   -0.9122   -6.8915   15.5222 C   0  0  0  0  0  0  0  0  0  0  0  0
    7.2468   -1.6110   15.0265 C   0  0  0  0  0  0  0  0  0  0  0  0
    8.4135   -2.2252   14.9051 N   0  0  0  0  0  0  0  0  0  0  0  0
    9.3530   -1.2594   15.2130 C   0  0  0  0  0  0  0  0  0  0  0  0
   10.7496   -1.2114   15.0547 C   0  0  0  0  0  0  0  0  0  0  0  0
   11.4121   -0.0052   15.3299 C   0  0  0  0  0  0  0  0  0  0  0  0
   10.7081    1.1035   15.8125 C   0  0  0  0  0  0  0  0  0  0  0  0
    9.3319    1.0320   16.0794 C   0  0  0  0  0  0  0  0  0  0  0  0
    8.7038   -0.1637   15.7372 C   0  0  0  0  0  0  0  0  0  0  0  0
    7.3636   -0.4732   15.7926 O   0  0  0  0  0  0  0  0  0  0  0  0
    6.7811   -1.5909   12.4284 H   0  0  0  0  0  0  0  0  0  0  0  0
    5.2662   -0.7394   12.7460 H   0  0  0  0  0  0  0  0  0  0  0  0
    5.2073   -2.4179   12.3809 H   0  0  0  0  0  0  0  0  0  0  0  0
    6.0096   -3.1213   14.4148 H   0  0  0  0  0  0  0  0  0  0  0  0
    3.9116   -1.1032   14.4721 H   0  0  0  0  0  0  0  0  0  0  0  0
    4.5347   -1.4055   16.0641 H   0  0  0  0  0  0  0  0  0  0  0  0
    3.6693   -3.6790   14.2486 H   0  0  0  0  0  0  0  0  0  0  0  0
    1.6244   -4.7776   14.5090 H   0  0  0  0  0  0  0  0  0  0  0  0
    2.8178   -5.6513   15.4985 H   0  0  0  0  0  0  0  0  0  0  0  0
    0.0750   -4.6287   16.4647 H   0  0  0  0  0  0  0  0  0  0  0  0
    1.2629   -5.3926   17.5059 H   0  0  0  0  0  0  0  0  0  0  0  0
    1.2316   -7.8209   17.7736 H   0  0  0  0  0  0  0  0  0  0  0  0
   -0.8167   -9.5669   17.4514 H   0  0  0  0  0  0  0  0  0  0  0  0
   -2.3975   -8.5311   15.5329 H   0  0  0  0  0  0  0  0  0  0  0  0
   -1.2317   -6.1446   14.8108 H   0  0  0  0  0  0  0  0  0  0  0  0
   11.2744   -2.0632   14.6350 H   0  0  0  0  0  0  0  0  0  0  0  0
   12.4823    0.0682   15.1484 H   0  0  0  0  0  0  0  0  0  0  0  0
   11.2429    2.0318   16.0107 H   0  0  0  0  0  0  0  0  0  0  0  0
    8.7760    1.8810   16.4536 H   0  0  0  0  0  0  0  0  0  0  0  0
  1  2  1  0
  2  3  1  0
  3  4  1  0
  4  5  1  0
  5  6  2  0
  5  7  1  0
  7  8  1  0
  8  9  1  0
  9 10  1  0
 10 11  2  0
 11 12  1  0
 12 13  2  0
  2 14  1  0
 14 15  2  0
 15 16  1  0
 16 17  2  0
 17 18  1  0
 18 19  2  0
 19 20  1  0
 20 21  2  0
 21 22  1  0
 13  9  1  0
 22 14  1  0
 21 16  1  0
  1 23  1  0
  1 24  1  0
  1 25  1  0
  2 26  1  0
  3 27  1  0
  3 28  1  0
  4 29  1  0
  7 30  1  0
  7 31  1  0
  8 32  1  0
  8 33  1  0
 10 34  1  0
 11 35  1  0
 12 36  1  0
 13 37  1  0
 17 38  1  0
 18 39  1  0
 19 40  1  0
 20 41  1  0
M  END
>  <Energy>  (652) 
33.951984108794889

>  <compound_id>  (652) 
76583

>  <target_id>  (652) 
1

>  <reference_id>  (652) 
120

>  <inspiration_ids>  (652) 
[2, 120]

>  <energy_score>  (652) 
11.156857768360812

>  <distance_score>  (652) 
12.941915705188881

>  <path>  (652) 
/opt/xchem-fragalysis-2/maxwin/BulkDock/SCRATCH/511022/C76583-P120/C76583-P120.minimised.mol

>  <scratch_subdir>  (652) 
/opt/xchem-fragalysis-2/maxwin/BulkDock/SCRATCH/511022/C76583-P120

>  <fragmenstein_runtime>  (652) 
25.962688207626343

>  <fragmenstein_outcome>  (652) 
too moved

>  <fragmenstein_mode>  (652) 
expansion

>  <fragmenstein_error>  (652) 


$$$$
C76584-P2
     RDKit          3D

 36 38  0  0  0  0  0  0  0  0999 V2000
    8.7015   -7.7420   14.9340 N   0  0  0  0  0  0  0  0  0  0  0  0
    8.4757   -6.8374   13.8012 C   0  0  0  0  0  0  0  0  0  0  0  0
    7.4470   -6.9525   12.4336 N   0  0  0  0  0  0  0  0  0  0  0  0
    5.5477   -6.7587   12.1200 C   0  0  0  0  0  0  0  0  0  0  0  0
    5.2446   -5.5430   12.0745 O   0  0  0  0  0  0  0  0  0  0  0  0
    3.8500   -7.8939   11.6541 C   0  0  0  0  0  0  0  0  0  0  0  0
    2.9679   -9.6673   11.0700 C   0  0  0  0  0  0  0  0  0  0  0  0
    3.4642  -10.7723   10.3174 C   0  0  0  0  0  0  0  0  0  0  0  0
    2.8630  -12.0185   10.4044 C   0  0  0  0  0  0  0  0  0  0  0  0
    1.5729  -12.1004   11.0316 C   0  0  0  0  0  0  0  0  0  0  0  0
    0.8873  -10.9872   11.3490 C   0  0  0  0  0  0  0  0  0  0  0  0
    1.5264   -9.8260   10.9581 C   0  0  0  0  0  0  0  0  0  0  0  0
    9.9431   -5.4346   14.3637 N   0  0  0  0  0  0  0  0  0  0  0  0
   10.6210   -4.1306   13.6464 C   0  0  0  0  0  0  0  0  0  0  0  0
   11.7436   -3.8678   13.0163 N   0  0  0  0  0  0  0  0  0  0  0  0
   12.2183   -2.6339   13.5046 C   0  0  0  0  0  0  0  0  0  0  0  0
   13.3537   -1.8569   13.1891 C   0  0  0  0  0  0  0  0  0  0  0  0
   13.5540   -0.6378   13.8571 C   0  0  0  0  0  0  0  0  0  0  0  0
   12.6578   -0.2068   14.8388 C   0  0  0  0  0  0  0  0  0  0  0  0
   11.5474   -0.9850   15.1907 C   0  0  0  0  0  0  0  0  0  0  0  0
   11.3887   -2.1821   14.4952 C   0  0  0  0  0  0  0  0  0  0  0  0
   10.4137   -3.1125   14.6409 O   0  0  0  0  0  0  0  0  0  0  0  0
    9.2966   -7.2551   15.5849 H   0  0  0  0  0  0  0  0  0  0  0  0
    9.4879   -7.3638   15.4675 H   0  0  0  0  0  0  0  0  0  0  0  0
    3.1460   -7.1258   11.2988 H   0  0  0  0  0  0  0  0  0  0  0  0
    3.8646   -8.0339   12.7369 H   0  0  0  0  0  0  0  0  0  0  0  0
    4.3102  -10.6472    9.6552 H   0  0  0  0  0  0  0  0  0  0  0  0
    3.2969  -12.8734    9.8990 H   0  0  0  0  0  0  0  0  0  0  0  0
    1.0063  -13.0202   11.2224 H   0  0  0  0  0  0  0  0  0  0  0  0
   -0.1096  -11.0964   11.7380 H   0  0  0  0  0  0  0  0  0  0  0  0
    1.0335   -8.8796   10.9573 H   0  0  0  0  0  0  0  0  0  0  0  0
   10.4140   -5.7497   15.2158 H   0  0  0  0  0  0  0  0  0  0  0  0
   14.0550   -2.2001   12.4348 H   0  0  0  0  0  0  0  0  0  0  0  0
   14.4193   -0.0281   13.6065 H   0  0  0  0  0  0  0  0  0  0  0  0
   12.8286    0.7438   15.3398 H   0  0  0  0  0  0  0  0  0  0  0  0
   10.8372   -0.6657   15.9377 H   0  0  0  0  0  0  0  0  0  0  0  0
  1  2  1  0
  2  3  2  3
  3  4  1  0
  4  5  2  0
  4  6  1  0
  6  7  1  0
  7  8  2  0
  8  9  1  0
  9 10  2  0
 10 11  1  0
 11 12  2  0
  2 13  1  0
 13 14  1  0
 14 15  2  0
 15 16  1  0
 16 17  2  0
 17 18  1  0
 18 19  2  0
 19 20  1  0
 20 21  2  0
 21 22  1  0
 12  7  1  0
 22 14  1  0
 21 16  1  0
  1 23  1  0
  1 24  1  0
  6 25  1  0
  6 26  1  0
  8 27  1  0
  9 28  1  0
 10 29  1  0
 11 30  1  0
 12 31  1  0
 13 32  1  0
 17 33  1  0
 18 34  1  0
 19 35  1  0
 20 36  1  0
M  END
>  <Energy>  (653) 
914.13566049526446

>  <compound_id>  (653) 
76584

>  <target_id>  (653) 
1

>  <reference_id>  (653) 
2

>  <inspiration_ids>  (653) 
[2, 120]

>  <energy_score>  (653) 
932.6119361798495

>  <distance_score>  (653) 
10.490772664097552

>  <path>  (653) 
/opt/xchem-fragalysis-2/maxwin/BulkDock/SCRATCH/511022/C76584-P2/C76584-P2.minimised.mol

>  <scratch_subdir>  (653) 
/opt/xchem-fragalysis-2/maxwin/BulkDock/SCRATCH/511022/C76584-P2

>  <fragmenstein_runtime>  (653) 
18.536596059799194

>  <fragmenstein_outcome>  (653) 
too moved

>  <fragmenstein_mode>  (653) 
expansion

>  <fragmenstein_error>  (653) 


$$$$
C76584-P120
     RDKit          3D

 36 38  0  0  0  0  0  0  0  0999 V2000
    0.8195   -3.8533   14.3666 N   0  0  0  0  0  0  0  0  0  0  0  0
    1.8497   -3.7215   13.2719 C   0  0  0  0  0  0  0  0  0  0  0  0
    1.7874   -4.0619   12.0921 N   0  0  0  0  0  0  0  0  0  0  0  0
    2.7117   -4.1012   11.0981 C   0  0  0  0  0  0  0  0  0  0  0  0
    3.9151   -3.8862   11.2509 O   0  0  0  0  0  0  0  0  0  0  0  0
    2.1244   -4.4074    9.6755 C   0  0  0  0  0  0  0  0  0  0  0  0
    0.8216   -5.2059    9.3408 C   0  0  0  0  0  0  0  0  0  0  0  0
   -0.3940   -5.0866   10.0140 C   0  0  0  0  0  0  0  0  0  0  0  0
   -1.5823   -5.6243    9.4672 C   0  0  0  0  0  0  0  0  0  0  0  0
   -1.5842   -6.3798    8.2921 C   0  0  0  0  0  0  0  0  0  0  0  0
   -0.3932   -6.5504    7.6196 C   0  0  0  0  0  0  0  0  0  0  0  0
    0.7627   -5.9149    8.1087 C   0  0  0  0  0  0  0  0  0  0  0  0
    2.9408   -2.9569   14.0296 N   0  0  0  0  0  0  0  0  0  0  0  0
    4.0820   -2.3733   13.5959 C   0  0  0  0  0  0  0  0  0  0  0  0
    5.2865   -2.6552   14.0779 N   0  0  0  0  0  0  0  0  0  0  0  0
    5.9817   -1.4692   14.0811 C   0  0  0  0  0  0  0  0  0  0  0  0
    7.2756   -1.1490   14.5270 C   0  0  0  0  0  0  0  0  0  0  0  0
    7.6575    0.1995   14.5813 C   0  0  0  0  0  0  0  0  0  0  0  0
    6.7635    1.2016   14.1963 C   0  0  0  0  0  0  0  0  0  0  0  0
    5.4950    0.8906   13.6760 C   0  0  0  0  0  0  0  0  0  0  0  0
    5.1473   -0.4588   13.6480 C   0  0  0  0  0  0  0  0  0  0  0  0
    3.9470   -1.0258   13.2951 O   0  0  0  0  0  0  0  0  0  0  0  0
    1.2457   -3.5770   15.2612 H   0  0  0  0  0  0  0  0  0  0  0  0
    1.1543   -3.3546   15.2021 H   0  0  0  0  0  0  0  0  0  0  0  0
    2.9428   -4.9241    9.1551 H   0  0  0  0  0  0  0  0  0  0  0  0
    2.0062   -3.4280    9.1927 H   0  0  0  0  0  0  0  0  0  0  0  0
   -0.4617   -4.5019   10.9288 H   0  0  0  0  0  0  0  0  0  0  0  0
   -2.5252   -5.4270    9.9709 H   0  0  0  0  0  0  0  0  0  0  0  0
   -2.5077   -6.7915    7.8984 H   0  0  0  0  0  0  0  0  0  0  0  0
   -0.3580   -7.0967    6.6820 H   0  0  0  0  0  0  0  0  0  0  0  0
    1.6499   -5.9439    7.4749 H   0  0  0  0  0  0  0  0  0  0  0  0
    2.7102   -2.9227   14.9887 H   0  0  0  0  0  0  0  0  0  0  0  0
    7.9577   -1.9375   14.8234 H   0  0  0  0  0  0  0  0  0  0  0  0
    8.6581    0.4584   14.9179 H   0  0  0  0  0  0  0  0  0  0  0  0
    7.0619    2.2460   14.2665 H   0  0  0  0  0  0  0  0  0  0  0  0
    4.8071    1.6576   13.3419 H   0  0  0  0  0  0  0  0  0  0  0  0
  1  2  1  0
  2  3  2  3
  3  4  1  0
  4  5  2  0
  4  6  1  0
  6  7  1  0
  7  8  2  0
  8  9  1  0
  9 10  2  0
 10 11  1  0
 11 12  2  0
  2 13  1  0
 13 14  1  0
 14 15  2  0
 15 16  1  0
 16 17  2  0
 17 18  1  0
 18 19  2  0
 19 20  1  0
 20 21  2  0
 21 22  1  0
 12  7  1  0
 22 14  1  0
 21 16  1  0
  1 23  1  0
  1 24  1  0
  6 25  1  0
  6 26  1  0
  8 27  1  0
  9 28  1  0
 10 29  1  0
 11 30  1  0
 12 31  1  0
 13 32  1  0
 17 33  1  0
 18 34  1  0
 19 35  1  0
 20 36  1  0
M  END
>  <Energy>  (654) 
191.4690083192686

>  <compound_id>  (654) 
76584

>  <target_id>  (654) 
1

>  <reference_id>  (654) 
120

>  <inspiration_ids>  (654) 
[2, 120]

>  <energy_score>  (654) 
209.94528400386187

>  <distance_score>  (654) 
13.267001660223844

>  <path>  (654) 
/opt/xchem-fragalysis-2/maxwin/BulkDock/SCRATCH/511022/C76584-P120/C76584-P120.minimised.mol

>  <scratch_subdir>  (654) 
/opt/xchem-fragalysis-2/maxwin/BulkDock/SCRATCH/511022/C76584-P120

>  <fragmenstein_runtime>  (654) 
19.204350233078003

>  <fragmenstein_outcome>  (654) 
too moved

>  <fragmenstein_mode>  (654) 
expansion

>  <fragmenstein_error>  (654) 


$$$$
C76585-P2
     RDKit          3D

 39 42  0  0  0  0  0  0  0  0999 V2000
   -2.0767   -7.2157    6.1761 C   0  0  0  0  0  0  0  0  0  0  0  0
   -1.1004   -8.1886    6.1883 C   0  0  0  0  0  0  0  0  0  0  0  0
   -0.0936   -8.1318    7.1625 C   0  0  0  0  0  0  0  0  0  0  0  0
   -0.0838   -7.1889    8.2368 C   0  0  0  0  0  0  0  0  0  0  0  0
    0.8054   -7.5314    9.6921 C   0  0  0  0  0  0  0  0  0  0  0  0
    1.9740   -7.1474   11.0166 N   0  0  0  0  0  0  0  0  0  0  0  0
    3.2796   -7.2008   11.4740 C   0  0  0  0  0  0  0  0  0  0  0  0
    3.8799   -6.7124   12.4090 C   0  0  0  0  0  0  0  0  0  0  0  0
    4.6158   -7.7117   13.6728 C   0  0  0  0  0  0  0  0  0  0  0  0
    6.0626   -7.6535   14.0290 C   0  0  0  0  0  0  0  0  0  0  0  0
    7.3237   -6.7053   15.2245 C   0  0  0  0  0  0  0  0  0  0  0  0
    8.5689   -6.1265   14.5343 N   0  0  0  0  0  0  0  0  0  0  0  0
    9.0552   -4.3572   14.9198 C   0  0  0  0  0  0  0  0  0  0  0  0
   10.2766   -3.5268   14.8229 C   0  0  0  0  0  0  0  0  0  0  0  0
   10.1416   -2.1382   15.0159 C   0  0  0  0  0  0  0  0  0  0  0  0
    8.8459   -1.5989   15.0989 C   0  0  0  0  0  0  0  0  0  0  0  0
    7.7032   -2.4373   15.2040 C   0  0  0  0  0  0  0  0  0  0  0  0
    7.9581   -3.8242   15.5010 C   0  0  0  0  0  0  0  0  0  0  0  0
    7.1042   -5.4431   15.9650 O   0  0  0  0  0  0  0  0  0  0  0  0
    5.9696   -7.3664   12.7159 C   0  0  0  0  0  0  0  0  0  0  0  0
    4.5685   -6.7707   11.4524 C   0  0  0  0  0  0  0  0  0  0  0  0
   -0.9669   -6.1116    8.0712 C   0  0  0  0  0  0  0  0  0  0  0  0
   -1.9681   -6.1506    7.0711 C   0  0  0  0  0  0  0  0  0  0  0  0
   -2.8686   -7.2310    5.4335 H   0  0  0  0  0  0  0  0  0  0  0  0
   -1.0919   -8.9731    5.4366 H   0  0  0  0  0  0  0  0  0  0  0  0
    0.6925   -8.8709    7.0422 H   0  0  0  0  0  0  0  0  0  0  0  0
    0.6853   -8.6198    9.7973 H   0  0  0  0  0  0  0  0  0  0  0  0
    0.0498   -6.9653   10.1207 H   0  0  0  0  0  0  0  0  0  0  0  0
    1.5420   -7.8171   11.6646 H   0  0  0  0  0  0  0  0  0  0  0  0
    3.5106   -5.6073   12.6694 H   0  0  0  0  0  0  0  0  0  0  0  0
    3.8652   -7.5014   14.4537 H   0  0  0  0  0  0  0  0  0  0  0  0
   11.2187   -3.9496   14.5139 H   0  0  0  0  0  0  0  0  0  0  0  0
   11.0009   -1.4873   14.8774 H   0  0  0  0  0  0  0  0  0  0  0  0
    8.7095   -0.5278   14.9608 H   0  0  0  0  0  0  0  0  0  0  0  0
    6.7146   -2.0138   15.0828 H   0  0  0  0  0  0  0  0  0  0  0  0
    6.9923   -7.4990   12.2464 H   0  0  0  0  0  0  0  0  0  0  0  0
    5.0914   -6.7963   10.4386 H   0  0  0  0  0  0  0  0  0  0  0  0
   -0.9739   -5.2671    8.7494 H   0  0  0  0  0  0  0  0  0  0  0  0
   -2.6891   -5.3368    7.0153 H   0  0  0  0  0  0  0  0  0  0  0  0
  1  2  2  0
  2  3  1  0
  3  4  2  0
  4  5  1  0
  5  6  1  0
  6  7  1  0
  7  8  2  0
  8  9  1  0
  9 10  2  0
 10 11  1  0
 11 12  2  0
 12 13  1  0
 13 14  2  0
 14 15  1  0
 15 16  2  0
 16 17  1  0
 17 18  2  0
 18 19  1  0
 10 20  1  0
 20 21  2  0
  4 22  1  0
 22 23  2  0
 23  1  1  0
 21  7  1  0
 19 11  1  0
 18 13  1  0
  1 24  1  0
  2 25  1  0
  3 26  1  0
  5 27  1  0
  5 28  1  0
  6 29  1  0
  8 30  1  0
  9 31  1  0
 14 32  1  0
 15 33  1  0
 16 34  1  0
 17 35  1  0
 20 36  1  0
 21 37  1  0
 22 38  1  0
 23 39  1  0
M  END
>  <Energy>  (655) 
935.36134402619393

>  <compound_id>  (655) 
76585

>  <target_id>  (655) 
1

>  <reference_id>  (655) 
2

>  <inspiration_ids>  (655) 
[2, 120]

>  <energy_score>  (655) 
855.4662520247309

>  <distance_score>  (655) 
12.336737036654547

>  <path>  (655) 
/opt/xchem-fragalysis-2/maxwin/BulkDock/SCRATCH/511022/C76585-P2/C76585-P2.minimised.mol

>  <scratch_subdir>  (655) 
/opt/xchem-fragalysis-2/maxwin/BulkDock/SCRATCH/511022/C76585-P2

>  <fragmenstein_runtime>  (655) 
29.333805322647095

>  <fragmenstein_outcome>  (655) 
too moved

>  <fragmenstein_mode>  (655) 
expansion

>  <fragmenstein_error>  (655) 


$$$$
C76585-P120
     RDKit          3D

 39 42  0  0  0  0  0  0  0  0999 V2000
   -6.1309  -17.7721    9.4964 C   0  0  0  0  0  0  0  0  0  0  0  0
   -6.3712  -16.4377   10.9754 C   0  0  0  0  0  0  0  0  0  0  0  0
   -4.8159  -15.3832   11.6680 C   0  0  0  0  0  0  0  0  0  0  0  0
   -2.9962  -15.4458   10.9785 C   0  0  0  0  0  0  0  0  0  0  0  0
   -1.1370  -14.5321   11.1108 C   0  0  0  0  0  0  0  0  0  0  0  0
    0.0467  -13.0992   11.9057 N   0  0  0  0  0  0  0  0  0  0  0  0
    1.0661  -11.5254   11.9181 C   0  0  0  0  0  0  0  0  0  0  0  0
    2.5958  -11.0300   11.5980 C   0  0  0  0  0  0  0  0  0  0  0  0
    3.9679  -10.3909   12.7960 C   0  0  0  0  0  0  0  0  0  0  0  0
    4.5346   -9.3336   13.8157 C   0  0  0  0  0  0  0  0  0  0  0  0
    5.9376   -7.8849   14.1693 C   0  0  0  0  0  0  0  0  0  0  0  0
    7.3233   -7.6141   14.6763 N   0  0  0  0  0  0  0  0  0  0  0  0
    7.8382   -6.0046   15.3897 C   0  0  0  0  0  0  0  0  0  0  0  0
    8.8116   -4.3849   15.0237 C   0  0  0  0  0  0  0  0  0  0  0  0
    8.4753   -2.9135   14.8722 C   0  0  0  0  0  0  0  0  0  0  0  0
    7.1632   -2.5786   14.9089 C   0  0  0  0  0  0  0  0  0  0  0  0
    6.3031   -3.6866   15.2749 C   0  0  0  0  0  0  0  0  0  0  0  0
    6.6739   -5.5219   15.8140 C   0  0  0  0  0  0  0  0  0  0  0  0
    5.8940   -6.6178   15.5629 O   0  0  0  0  0  0  0  0  0  0  0  0
    3.4951  -10.4505   14.1925 C   0  0  0  0  0  0  0  0  0  0  0  0
    1.8948  -11.2565   13.3764 C   0  0  0  0  0  0  0  0  0  0  0  0
   -2.8897  -16.7679    9.7220 C   0  0  0  0  0  0  0  0  0  0  0  0
   -4.2158  -17.8721    8.9941 C   0  0  0  0  0  0  0  0  0  0  0  0
   -6.8365  -18.0575    8.7383 H   0  0  0  0  0  0  0  0  0  0  0  0
   -6.6259  -17.2180   11.8093 H   0  0  0  0  0  0  0  0  0  0  0  0
   -4.9898  -14.7528   12.5426 H   0  0  0  0  0  0  0  0  0  0  0  0
   -0.6403  -15.2891   11.7532 H   0  0  0  0  0  0  0  0  0  0  0  0
   -0.5294  -15.0653   10.4048 H   0  0  0  0  0  0  0  0  0  0  0  0
   -0.6796  -12.5024   12.3253 H   0  0  0  0  0  0  0  0  0  0  0  0
    3.0445  -11.5754   10.7486 H   0  0  0  0  0  0  0  0  0  0  0  0
    4.9412  -10.9600   12.5873 H   0  0  0  0  0  0  0  0  0  0  0  0
    9.9239   -4.4888   14.7940 H   0  0  0  0  0  0  0  0  0  0  0  0
    9.2705   -2.1986   14.6985 H   0  0  0  0  0  0  0  0  0  0  0  0
    6.7834   -1.5935   14.6832 H   0  0  0  0  0  0  0  0  0  0  0  0
    5.2080   -3.4199   15.2873 H   0  0  0  0  0  0  0  0  0  0  0  0
    3.7903  -10.9457   15.1605 H   0  0  0  0  0  0  0  0  0  0  0  0
    1.3421  -12.0165   14.0498 H   0  0  0  0  0  0  0  0  0  0  0  0
   -1.8788  -17.0343    9.3956 H   0  0  0  0  0  0  0  0  0  0  0  0
   -3.7022  -18.7716    8.6226 H   0  0  0  0  0  0  0  0  0  0  0  0
  1  2  2  0
  2  3  1  0
  3  4  2  0
  4  5  1  0
  5  6  1  0
  6  7  1  0
  7  8  2  0
  8  9  1  0
  9 10  2  0
 10 11  1  0
 11 12  2  0
 12 13  1  0
 13 14  2  0
 14 15  1  0
 15 16  2  0
 16 17  1  0
 17 18  2  0
 18 19  1  0
 10 20  1  0
 20 21  2  0
  4 22  1  0
 22 23  2  0
 23  1  1  0
 21  7  1  0
 19 11  1  0
 18 13  1  0
  1 24  1  0
  2 25  1  0
  3 26  1  0
  5 27  1  0
  5 28  1  0
  6 29  1  0
  8 30  1  0
  9 31  1  0
 14 32  1  0
 15 33  1  0
 16 34  1  0
 17 35  1  0
 20 36  1  0
 21 37  1  0
 22 38  1  0
 23 39  1  0
M  END
>  <Energy>  (656) 
2053.3648234335924

>  <compound_id>  (656) 
76585

>  <target_id>  (656) 
1

>  <reference_id>  (656) 
120

>  <inspiration_ids>  (656) 
[2, 120]

>  <energy_score>  (656) 
1973.4697314321388

>  <distance_score>  (656) 
9.482987272034336

>  <path>  (656) 
/opt/xchem-fragalysis-2/maxwin/BulkDock/SCRATCH/511022/C76585-P120/C76585-P120.minimised.mol

>  <scratch_subdir>  (656) 
/opt/xchem-fragalysis-2/maxwin/BulkDock/SCRATCH/511022/C76585-P120

>  <fragmenstein_runtime>  (656) 
25.452839136123657

>  <fragmenstein_outcome>  (656) 
too moved

>  <fragmenstein_mode>  (656) 
expansion

>  <fragmenstein_error>  (656) 


$$$$
C76586-P2
     RDKit          3D

 44 47  0  0  0  0  0  0  0  0999 V2000
    5.4628  -17.3690    6.8480 C   0  0  0  0  0  0  0  0  0  0  0  0
    5.9478  -16.4799    5.8879 C   0  0  0  0  0  0  0  0  0  0  0  0
    7.1371  -15.7339    6.1114 C   0  0  0  0  0  0  0  0  0  0  0  0
    7.8652  -15.8344    7.3110 C   0  0  0  0  0  0  0  0  0  0  0  0
    9.2041  -15.0515    7.5928 C   0  0  0  0  0  0  0  0  0  0  0  0
    9.2644  -13.5393    7.4802 N   0  0  0  0  0  0  0  0  0  0  0  0
   10.4390  -12.9060    8.2528 C   0  0  0  0  0  0  0  0  0  0  0  0
   11.8394  -13.2016    7.6829 C   0  0  0  0  0  0  0  0  0  0  0  0
   12.9701  -12.5698    8.5352 C   0  0  0  0  0  0  0  0  0  0  0  0
   12.4651  -11.9600    9.8460 C   0  0  0  0  0  0  0  0  0  0  0  0
   11.4981  -10.9020    9.5346 N   0  0  0  0  0  0  0  0  0  0  0  0
   12.0850   -9.6795    9.4187 C   0  0  0  0  0  0  0  0  0  0  0  0
   13.3637   -9.4050    9.5828 N   0  0  0  0  0  0  0  0  0  0  0  0
   13.4712   -8.1088    9.1993 C   0  0  0  0  0  0  0  0  0  0  0  0
   14.6054   -7.3252    9.0113 C   0  0  0  0  0  0  0  0  0  0  0  0
   14.4155   -6.0234    8.5630 C   0  0  0  0  0  0  0  0  0  0  0  0
   13.1359   -5.5081    8.3347 C   0  0  0  0  0  0  0  0  0  0  0  0
   11.9922   -6.2861    8.5302 C   0  0  0  0  0  0  0  0  0  0  0  0
   12.2193   -7.5910    8.9362 C   0  0  0  0  0  0  0  0  0  0  0  0
   11.3145   -8.6005    9.1065 O   0  0  0  0  0  0  0  0  0  0  0  0
   10.4536  -11.3214    8.5241 C   0  0  0  0  0  0  0  0  0  0  0  0
    7.3757  -16.7933    8.2354 C   0  0  0  0  0  0  0  0  0  0  0  0
    6.1875  -17.5344    8.0235 C   0  0  0  0  0  0  0  0  0  0  0  0
    4.5555  -17.9359    6.6667 H   0  0  0  0  0  0  0  0  0  0  0  0
    5.4069  -16.3349    4.9559 H   0  0  0  0  0  0  0  0  0  0  0  0
    7.4689  -15.0279    5.3516 H   0  0  0  0  0  0  0  0  0  0  0  0
    9.9577  -15.4713    6.9163 H   0  0  0  0  0  0  0  0  0  0  0  0
    9.4999  -15.3208    8.6141 H   0  0  0  0  0  0  0  0  0  0  0  0
    8.4006  -13.2049    7.9222 H   0  0  0  0  0  0  0  0  0  0  0  0
   10.4110  -13.4220    9.2097 H   0  0  0  0  0  0  0  0  0  0  0  0
   11.9156  -12.8373    6.6509 H   0  0  0  0  0  0  0  0  0  0  0  0
   12.0003  -14.2855    7.6391 H   0  0  0  0  0  0  0  0  0  0  0  0
   13.4822  -11.8084    7.9336 H   0  0  0  0  0  0  0  0  0  0  0  0
   13.7194  -13.3387    8.7575 H   0  0  0  0  0  0  0  0  0  0  0  0
   13.3103  -11.6068   10.4509 H   0  0  0  0  0  0  0  0  0  0  0  0
   11.9941  -12.7282   10.4693 H   0  0  0  0  0  0  0  0  0  0  0  0
   15.5960   -7.7360    9.1594 H   0  0  0  0  0  0  0  0  0  0  0  0
   15.2967   -5.4319    8.3456 H   0  0  0  0  0  0  0  0  0  0  0  0
   13.0329   -4.4951    7.9541 H   0  0  0  0  0  0  0  0  0  0  0  0
   11.0001   -5.9031    8.3517 H   0  0  0  0  0  0  0  0  0  0  0  0
    9.4803  -11.0212    8.8909 H   0  0  0  0  0  0  0  0  0  0  0  0
   10.6247  -10.8102    7.5676 H   0  0  0  0  0  0  0  0  0  0  0  0
    7.9612  -16.9920    9.1278 H   0  0  0  0  0  0  0  0  0  0  0  0
    5.8588  -18.2539    8.7685 H   0  0  0  0  0  0  0  0  0  0  0  0
  1  2  2  0
  2  3  1  0
  3  4  2  0
  4  5  1  0
  5  6  1  0
  6  7  1  0
  7  8  1  0
  8  9  1  0
  9 10  1  0
 10 11  1  0
 11 12  1  0
 12 13  2  0
 13 14  1  0
 14 15  2  0
 15 16  1  0
 16 17  2  0
 17 18  1  0
 18 19  2  0
 19 20  1  0
 11 21  1  0
  4 22  1  0
 22 23  2  0
 23  1  1  0
 21  7  1  0
 20 12  1  0
 19 14  1  0
  1 24  1  0
  2 25  1  0
  3 26  1  0
  5 27  1  0
  5 28  1  0
  6 29  1  0
  7 30  1  0
  8 31  1  0
  8 32  1  0
  9 33  1  0
  9 34  1  0
 10 35  1  0
 10 36  1  0
 15 37  1  0
 16 38  1  0
 17 39  1  0
 18 40  1  0
 21 41  1  0
 21 42  1  0
 22 43  1  0
 23 44  1  0
M  END
>  <Energy>  (657) 
42.293339622647224

>  <compound_id>  (657) 
76586

>  <target_id>  (657) 
1

>  <reference_id>  (657) 
2

>  <inspiration_ids>  (657) 
[2, 120]

>  <energy_score>  (657) 
-26.236926694168282

>  <distance_score>  (657) 
14.384879710761776

>  <path>  (657) 
/opt/xchem-fragalysis-2/maxwin/BulkDock/SCRATCH/511022/C76586-P2/C76586-P2.minimised.mol

>  <scratch_subdir>  (657) 
/opt/xchem-fragalysis-2/maxwin/BulkDock/SCRATCH/511022/C76586-P2

>  <fragmenstein_runtime>  (657) 
21.325403451919556

>  <fragmenstein_outcome>  (657) 
too moved

>  <fragmenstein_mode>  (657) 
expansion

>  <fragmenstein_error>  (657) 


$$$$
C76586-P120
     RDKit          3D

 44 47  0  0  0  0  0  0  0  0999 V2000
   -0.8875  -13.8480   17.7971 C   0  0  0  0  0  0  0  0  0  0  0  0
    0.4196  -14.0750   18.2188 C   0  0  0  0  0  0  0  0  0  0  0  0
    1.2638  -13.0040   18.6103 C   0  0  0  0  0  0  0  0  0  0  0  0
    0.8347  -11.6695   18.5872 C   0  0  0  0  0  0  0  0  0  0  0  0
    1.8213  -10.4533   18.6494 C   0  0  0  0  0  0  0  0  0  0  0  0
    2.6909  -10.0789   19.8217 N   0  0  0  0  0  0  0  0  0  0  0  0
    3.6581   -8.9272   19.4570 C   0  0  0  0  0  0  0  0  0  0  0  0
    2.8935   -7.6310   19.0700 C   0  0  0  0  0  0  0  0  0  0  0  0
    3.6459   -6.3174   19.3013 C   0  0  0  0  0  0  0  0  0  0  0  0
    5.1396   -6.4195   19.0860 C   0  0  0  0  0  0  0  0  0  0  0  0
    5.7324   -7.4922   19.8788 N   0  0  0  0  0  0  0  0  0  0  0  0
    6.8884   -7.1706   20.5226 C   0  0  0  0  0  0  0  0  0  0  0  0
    7.5346   -6.0148   20.4981 N   0  0  0  0  0  0  0  0  0  0  0  0
    8.6629   -6.2456   21.2406 C   0  0  0  0  0  0  0  0  0  0  0  0
    9.7158   -5.3977   21.5953 C   0  0  0  0  0  0  0  0  0  0  0  0
   10.8247   -5.9501   22.2404 C   0  0  0  0  0  0  0  0  0  0  0  0
   10.8489   -7.3079   22.5752 C   0  0  0  0  0  0  0  0  0  0  0  0
    9.7648   -8.1582   22.3010 C   0  0  0  0  0  0  0  0  0  0  0  0
    8.7013   -7.5739   21.6258 C   0  0  0  0  0  0  0  0  0  0  0  0
    7.5444   -8.1655   21.2007 O   0  0  0  0  0  0  0  0  0  0  0  0
    4.8374   -8.5471   20.4388 C   0  0  0  0  0  0  0  0  0  0  0  0
   -0.5129  -11.4780   18.1822 C   0  0  0  0  0  0  0  0  0  0  0  0
   -1.3587  -12.5427   17.7917 C   0  0  0  0  0  0  0  0  0  0  0  0
   -1.5218  -14.6727   17.4889 H   0  0  0  0  0  0  0  0  0  0  0  0
    0.8161  -15.0879   18.2287 H   0  0  0  0  0  0  0  0  0  0  0  0
    2.2984  -13.2301   18.8609 H   0  0  0  0  0  0  0  0  0  0  0  0
    2.5023  -10.6085   17.8069 H   0  0  0  0  0  0  0  0  0  0  0  0
    1.2105   -9.5686   18.4449 H   0  0  0  0  0  0  0  0  0  0  0  0
    3.2419  -10.9011   20.0675 H   0  0  0  0  0  0  0  0  0  0  0  0
    4.1809   -9.3196   18.5890 H   0  0  0  0  0  0  0  0  0  0  0  0
    2.5859   -7.6913   18.0190 H   0  0  0  0  0  0  0  0  0  0  0  0
    1.9601   -7.5711   19.6456 H   0  0  0  0  0  0  0  0  0  0  0  0
    3.4619   -5.9951   20.3351 H   0  0  0  0  0  0  0  0  0  0  0  0
    3.2234   -5.5356   18.6594 H   0  0  0  0  0  0  0  0  0  0  0  0
    5.5589   -5.4487   19.3606 H   0  0  0  0  0  0  0  0  0  0  0  0
    5.3715   -6.5802   18.0289 H   0  0  0  0  0  0  0  0  0  0  0  0
    9.6890   -4.3458   21.3501 H   0  0  0  0  0  0  0  0  0  0  0  0
   11.6720   -5.3128   22.4883 H   0  0  0  0  0  0  0  0  0  0  0  0
   11.7226   -7.7128   23.0848 H   0  0  0  0  0  0  0  0  0  0  0  0
    9.7662   -9.2062   22.5727 H   0  0  0  0  0  0  0  0  0  0  0  0
    5.4176   -9.4569   20.6360 H   0  0  0  0  0  0  0  0  0  0  0  0
    4.4192   -8.2048   21.3937 H   0  0  0  0  0  0  0  0  0  0  0  0
   -0.9085  -10.4651   18.1169 H   0  0  0  0  0  0  0  0  0  0  0  0
   -2.3760  -12.3317   17.4729 H   0  0  0  0  0  0  0  0  0  0  0  0
  1  2  2  0
  2  3  1  0
  3  4  2  0
  4  5  1  0
  5  6  1  0
  6  7  1  0
  7  8  1  0
  8  9  1  0
  9 10  1  0
 10 11  1  0
 11 12  1  0
 12 13  2  0
 13 14  1  0
 14 15  2  0
 15 16  1  0
 16 17  2  0
 17 18  1  0
 18 19  2  0
 19 20  1  0
 11 21  1  0
  4 22  1  0
 22 23  2  0
 23  1  1  0
 21  7  1  0
 20 12  1  0
 19 14  1  0
  1 24  1  0
  2 25  1  0
  3 26  1  0
  5 27  1  0
  5 28  1  0
  6 29  1  0
  7 30  1  0
  8 31  1  0
  8 32  1  0
  9 33  1  0
  9 34  1  0
 10 35  1  0
 10 36  1  0
 15 37  1  0
 16 38  1  0
 17 39  1  0
 18 40  1  0
 21 41  1  0
 21 42  1  0
 22 43  1  0
 23 44  1  0
M  END
>  <Energy>  (658) 
41.311555608260349

>  <compound_id>  (658) 
76586

>  <target_id>  (658) 
1

>  <reference_id>  (658) 
120

>  <inspiration_ids>  (658) 
[2, 120]

>  <energy_score>  (658) 
-27.21871070855375

>  <distance_score>  (658) 
13.886999298165938

>  <path>  (658) 
/opt/xchem-fragalysis-2/maxwin/BulkDock/SCRATCH/511022/C76586-P120/C76586-P120.minimised.mol

>  <scratch_subdir>  (658) 
/opt/xchem-fragalysis-2/maxwin/BulkDock/SCRATCH/511022/C76586-P120

>  <fragmenstein_runtime>  (658) 
21.378605604171753

>  <fragmenstein_outcome>  (658) 
too moved

>  <fragmenstein_mode>  (658) 
expansion

>  <fragmenstein_error>  (658) 


$$$$
C76587-P2
     RDKit          3D

 44 47  0  0  0  0  0  0  0  0999 V2000
   -0.1663   -5.9309    9.3814 C   0  0  0  0  0  0  0  0  0  0  0  0
    0.5526   -5.7750   10.5633 C   0  0  0  0  0  0  0  0  0  0  0  0
    0.9524   -4.5038   10.9853 C   0  0  0  0  0  0  0  0  0  0  0  0
    0.6411   -3.3633   10.2291 C   0  0  0  0  0  0  0  0  0  0  0  0
    1.0735   -1.9446   10.6796 C   0  0  0  0  0  0  0  0  0  0  0  0
    2.4414   -1.4576   10.3011 N   0  0  0  0  0  0  0  0  0  0  0  0
    2.5889    0.0261   10.5089 C   0  0  0  0  0  0  0  0  0  0  0  0
    3.7342    0.6583    9.6917 C   0  0  0  0  0  0  0  0  0  0  0  0
    3.9027    2.1850    9.9449 C   0  0  0  0  0  0  0  0  0  0  0  0
    3.7320    2.6128   11.3363 N   0  0  0  0  0  0  0  0  0  0  0  0
    4.4530    3.6442   11.8557 C   0  0  0  0  0  0  0  0  0  0  0  0
    5.5763    4.2077   11.4346 N   0  0  0  0  0  0  0  0  0  0  0  0
    6.0187    4.9340   12.5186 C   0  0  0  0  0  0  0  0  0  0  0  0
    7.2523    5.5444   12.7962 C   0  0  0  0  0  0  0  0  0  0  0  0
    7.4826    6.0292   14.0915 C   0  0  0  0  0  0  0  0  0  0  0  0
    6.4828    5.9746   15.0681 C   0  0  0  0  0  0  0  0  0  0  0  0
    5.2194    5.4361   14.7906 C   0  0  0  0  0  0  0  0  0  0  0  0
    5.0616    4.9005   13.5172 C   0  0  0  0  0  0  0  0  0  0  0  0
    4.0269    4.1379   13.0718 O   0  0  0  0  0  0  0  0  0  0  0  0
    2.7455    1.9207   12.1482 C   0  0  0  0  0  0  0  0  0  0  0  0
    2.8046    0.4003   11.9763 C   0  0  0  0  0  0  0  0  0  0  0  0
   -0.1358   -3.5506    9.0649 C   0  0  0  0  0  0  0  0  0  0  0  0
   -0.5373   -4.8224    8.6394 C   0  0  0  0  0  0  0  0  0  0  0  0
   -0.3276   -6.9241    8.9724 H   0  0  0  0  0  0  0  0  0  0  0  0
    0.9041   -6.6433   11.1069 H   0  0  0  0  0  0  0  0  0  0  0  0
    1.5598   -4.4023   11.8823 H   0  0  0  0  0  0  0  0  0  0  0  0
    0.3211   -1.2505   10.2833 H   0  0  0  0  0  0  0  0  0  0  0  0
    0.9780   -1.9104   11.7714 H   0  0  0  0  0  0  0  0  0  0  0  0
    2.5802   -1.6637    9.3117 H   0  0  0  0  0  0  0  0  0  0  0  0
    1.6643    0.5001   10.1516 H   0  0  0  0  0  0  0  0  0  0  0  0
    3.5395    0.5130    8.6209 H   0  0  0  0  0  0  0  0  0  0  0  0
    4.6637    0.1163    9.8836 H   0  0  0  0  0  0  0  0  0  0  0  0
    3.1353    2.7028    9.3545 H   0  0  0  0  0  0  0  0  0  0  0  0
    4.8632    2.5103    9.5319 H   0  0  0  0  0  0  0  0  0  0  0  0
    8.0270    5.6122   12.0462 H   0  0  0  0  0  0  0  0  0  0  0  0
    8.4438    6.4809   14.3305 H   0  0  0  0  0  0  0  0  0  0  0  0
    6.6821    6.3805   16.0586 H   0  0  0  0  0  0  0  0  0  0  0  0
    4.4379    5.3690   15.5366 H   0  0  0  0  0  0  0  0  0  0  0  0
    2.8491    2.1335   13.2169 H   0  0  0  0  0  0  0  0  0  0  0  0
    1.7479    2.2807   11.8654 H   0  0  0  0  0  0  0  0  0  0  0  0
    3.7614    0.0022   12.3285 H   0  0  0  0  0  0  0  0  0  0  0  0
    2.0247   -0.0421   12.6063 H   0  0  0  0  0  0  0  0  0  0  0  0
   -0.3994   -2.6887    8.4542 H   0  0  0  0  0  0  0  0  0  0  0  0
   -1.0562   -4.9388    7.6922 H   0  0  0  0  0  0  0  0  0  0  0  0
  1  2  2  0
  2  3  1  0
  3  4  2  0
  4  5  1  0
  5  6  1  0
  6  7  1  0
  7  8  1  0
  8  9  1  0
  9 10  1  0
 10 11  1  0
 11 12  2  0
 12 13  1  0
 13 14  2  0
 14 15  1  0
 15 16  2  0
 16 17  1  0
 17 18  2  0
 18 19  1  0
 10 20  1  0
 20 21  1  0
  4 22  1  0
 22 23  2  0
 23  1  1  0
 21  7  1  0
 19 11  1  0
 18 13  1  0
  1 24  1  0
  2 25  1  0
  3 26  1  0
  5 27  1  0
  5 28  1  0
  6 29  1  0
  7 30  1  0
  8 31  1  0
  8 32  1  0
  9 33  1  0
  9 34  1  0
 14 35  1  0
 15 36  1  0
 16 37  1  0
 17 38  1  0
 20 39  1  0
 20 40  1  0
 21 41  1  0
 21 42  1  0
 22 43  1  0
 23 44  1  0
M  END
>  <Energy>  (659) 
3.9945634326681643

>  <compound_id>  (659) 
76587

>  <target_id>  (659) 
1

>  <reference_id>  (659) 
2

>  <inspiration_ids>  (659) 
[2, 120]

>  <energy_score>  (659) 
-34.68303127573826

>  <distance_score>  (659) 
14.74004127443599

>  <path>  (659) 
/opt/xchem-fragalysis-2/maxwin/BulkDock/SCRATCH/511022/C76587-P2/C76587-P2.minimised.mol

>  <scratch_subdir>  (659) 
/opt/xchem-fragalysis-2/maxwin/BulkDock/SCRATCH/511022/C76587-P2

>  <fragmenstein_runtime>  (659) 
20.689645528793335

>  <fragmenstein_outcome>  (659) 
too moved

>  <fragmenstein_mode>  (659) 
expansion

>  <fragmenstein_error>  (659) 


$$$$
C76587-P120
     RDKit          3D

 44 47  0  0  0  0  0  0  0  0999 V2000
    8.0788  -12.8722    6.4532 C   0  0  0  0  0  0  0  0  0  0  0  0
    7.8765  -11.9346    5.4478 C   0  0  0  0  0  0  0  0  0  0  0  0
    8.2578  -10.5902    5.6456 C   0  0  0  0  0  0  0  0  0  0  0  0
    8.9185  -10.1515    6.8198 C   0  0  0  0  0  0  0  0  0  0  0  0
    9.5575   -8.7216    6.8508 C   0  0  0  0  0  0  0  0  0  0  0  0
   10.3027   -8.2774    8.0613 N   0  0  0  0  0  0  0  0  0  0  0  0
   11.4849   -7.3891    7.8565 C   0  0  0  0  0  0  0  0  0  0  0  0
   12.4671   -7.6203    9.0220 C   0  0  0  0  0  0  0  0  0  0  0  0
   13.1505   -6.3676    9.5576 C   0  0  0  0  0  0  0  0  0  0  0  0
   13.5850   -5.4704    8.4892 N   0  0  0  0  0  0  0  0  0  0  0  0
   14.4936   -4.5309    8.8845 C   0  0  0  0  0  0  0  0  0  0  0  0
   15.0338   -4.4038   10.0795 N   0  0  0  0  0  0  0  0  0  0  0  0
   15.5193   -3.1294   10.1088 C   0  0  0  0  0  0  0  0  0  0  0  0
   15.9952   -2.3521   11.1730 C   0  0  0  0  0  0  0  0  0  0  0  0
   16.3344   -1.0210   10.9110 C   0  0  0  0  0  0  0  0  0  0  0  0
   16.2332   -0.4957    9.6161 C   0  0  0  0  0  0  0  0  0  0  0  0
   15.7825   -1.2703    8.5348 C   0  0  0  0  0  0  0  0  0  0  0  0
   15.4118   -2.5722    8.8455 C   0  0  0  0  0  0  0  0  0  0  0  0
   14.7867   -3.4869    8.0348 O   0  0  0  0  0  0  0  0  0  0  0  0
   12.5583   -5.1039    7.5067 C   0  0  0  0  0  0  0  0  0  0  0  0
   11.2285   -5.8829    7.6900 C   0  0  0  0  0  0  0  0  0  0  0  0
    9.0802  -11.1153    7.8206 C   0  0  0  0  0  0  0  0  0  0  0  0
    8.6382  -12.4490    7.6549 C   0  0  0  0  0  0  0  0  0  0  0  0
    7.7670  -13.9046    6.3240 H   0  0  0  0  0  0  0  0  0  0  0  0
    7.4213  -12.2401    4.5098 H   0  0  0  0  0  0  0  0  0  0  0  0
    8.1108   -9.8881    4.8261 H   0  0  0  0  0  0  0  0  0  0  0  0
    8.7611   -7.9942    6.6537 H   0  0  0  0  0  0  0  0  0  0  0  0
   10.2421   -8.6995    5.9936 H   0  0  0  0  0  0  0  0  0  0  0  0
    9.6649   -7.8648    8.7440 H   0  0  0  0  0  0  0  0  0  0  0  0
   12.0009   -7.7354    6.9505 H   0  0  0  0  0  0  0  0  0  0  0  0
   11.9756   -8.1212    9.8644 H   0  0  0  0  0  0  0  0  0  0  0  0
   13.2345   -8.3286    8.6796 H   0  0  0  0  0  0  0  0  0  0  0  0
   14.0242   -6.7122   10.1093 H   0  0  0  0  0  0  0  0  0  0  0  0
   12.4915   -5.8420   10.2581 H   0  0  0  0  0  0  0  0  0  0  0  0
   16.0557   -2.7609   12.1747 H   0  0  0  0  0  0  0  0  0  0  0  0
   16.6878   -0.3898   11.7234 H   0  0  0  0  0  0  0  0  0  0  0  0
   16.5110    0.5426    9.4412 H   0  0  0  0  0  0  0  0  0  0  0  0
   15.6707   -0.8670    7.5368 H   0  0  0  0  0  0  0  0  0  0  0  0
   12.9562   -5.3183    6.5072 H   0  0  0  0  0  0  0  0  0  0  0  0
   12.3302   -4.0319    7.5323 H   0  0  0  0  0  0  0  0  0  0  0  0
   10.5884   -5.7051    6.8177 H   0  0  0  0  0  0  0  0  0  0  0  0
   10.6869   -5.4940    8.5573 H   0  0  0  0  0  0  0  0  0  0  0  0
    9.6097  -10.8478    8.7339 H   0  0  0  0  0  0  0  0  0  0  0  0
    8.7775  -13.1643    8.4622 H   0  0  0  0  0  0  0  0  0  0  0  0
  1  2  2  0
  2  3  1  0
  3  4  2  0
  4  5  1  0
  5  6  1  0
  6  7  1  0
  7  8  1  0
  8  9  1  0
  9 10  1  0
 10 11  1  0
 11 12  2  0
 12 13  1  0
 13 14  2  0
 14 15  1  0
 15 16  2  0
 16 17  1  0
 17 18  2  0
 18 19  1  0
 10 20  1  0
 20 21  1  0
  4 22  1  0
 22 23  2  0
 23  1  1  0
 21  7  1  0
 19 11  1  0
 18 13  1  0
  1 24  1  0
  2 25  1  0
  3 26  1  0
  5 27  1  0
  5 28  1  0
  6 29  1  0
  7 30  1  0
  8 31  1  0
  8 32  1  0
  9 33  1  0
  9 34  1  0
 14 35  1  0
 15 36  1  0
 16 37  1  0
 17 38  1  0
 20 39  1  0
 20 40  1  0
 21 41  1  0
 21 42  1  0
 22 43  1  0
 23 44  1  0
M  END
>  <Energy>  (660) 
10.711074668553639

>  <compound_id>  (660) 
76587

>  <target_id>  (660) 
1

>  <reference_id>  (660) 
120

>  <inspiration_ids>  (660) 
[2, 120]

>  <energy_score>  (660) 
-27.9665200398522

>  <distance_score>  (660) 
14.433732787744004

>  <path>  (660) 
/opt/xchem-fragalysis-2/maxwin/BulkDock/SCRATCH/511022/C76587-P120/C76587-P120.minimised.mol

>  <scratch_subdir>  (660) 
/opt/xchem-fragalysis-2/maxwin/BulkDock/SCRATCH/511022/C76587-P120

>  <fragmenstein_runtime>  (660) 
20.051885843276978

>  <fragmenstein_outcome>  (660) 
too moved

>  <fragmenstein_mode>  (660) 
expansion

>  <fragmenstein_error>  (660) 


$$$$
C76596-P2
     RDKit          3D

 43 46  0  0  0  0  0  0  0  0999 V2000
    4.9143   -9.2731   14.9897 C   0  0  0  0  0  0  0  0  0  0  0  0
    5.6646   -9.8474   13.2395 N   0  0  0  0  0  0  0  0  0  0  0  0
    4.6794   -9.3371   11.8412 C   0  0  0  0  0  0  0  0  0  0  0  0
    3.3905  -10.5617   11.1273 C   0  0  0  0  0  0  0  0  0  0  0  0
    3.0819  -11.8765   10.5605 C   0  0  0  0  0  0  0  0  0  0  0  0
    1.5670  -12.3470   11.0063 C   0  0  0  0  0  0  0  0  0  0  0  0
    0.7984  -13.9717   11.2245 C   0  0  0  0  0  0  0  0  0  0  0  0
    1.2483  -15.3272   10.4497 C   0  0  0  0  0  0  0  0  0  0  0  0
    0.4839  -16.3314   10.0517 C   0  0  0  0  0  0  0  0  0  0  0  0
   -0.7791  -15.9186   10.2016 C   0  0  0  0  0  0  0  0  0  0  0  0
   -1.1424  -14.9239   11.1459 C   0  0  0  0  0  0  0  0  0  0  0  0
   -0.2772  -14.1370   11.9016 C   0  0  0  0  0  0  0  0  0  0  0  0
    1.0355  -11.1784   11.4125 N   0  0  0  0  0  0  0  0  0  0  0  0
    1.9987  -10.1617   11.0486 O   0  0  0  0  0  0  0  0  0  0  0  0
    5.8273   -9.3115   13.5491 C   0  0  0  0  0  0  0  0  0  0  0  0
    4.3974  -10.4881   13.9753 O   0  0  0  0  0  0  0  0  0  0  0  0
    6.4950   -7.7556   14.4898 C   0  0  0  0  0  0  0  0  0  0  0  0
    8.0776   -6.5535   14.9266 C   0  0  0  0  0  0  0  0  0  0  0  0
    8.9023   -5.6374   14.2606 N   0  0  0  0  0  0  0  0  0  0  0  0
    9.4634   -4.1225   14.9223 C   0  0  0  0  0  0  0  0  0  0  0  0
   10.5937   -3.2707   14.7958 C   0  0  0  0  0  0  0  0  0  0  0  0
   10.3653   -1.9043   15.0462 C   0  0  0  0  0  0  0  0  0  0  0  0
    9.0412   -1.4237   15.1703 C   0  0  0  0  0  0  0  0  0  0  0  0
    7.9136   -2.2974   15.1884 C   0  0  0  0  0  0  0  0  0  0  0  0
    8.2341   -3.6753   15.2770 C   0  0  0  0  0  0  0  0  0  0  0  0
    7.5723   -5.2734   15.9260 O   0  0  0  0  0  0  0  0  0  0  0  0
    5.6745   -9.3380   15.7874 H   0  0  0  0  0  0  0  0  0  0  0  0
    4.1426   -9.8707   15.5715 H   0  0  0  0  0  0  0  0  0  0  0  0
    4.3465   -8.3304   14.8269 H   0  0  0  0  0  0  0  0  0  0  0  0
    5.3950   -9.2421   11.0171 H   0  0  0  0  0  0  0  0  0  0  0  0
    4.2387   -8.3494   12.0053 H   0  0  0  0  0  0  0  0  0  0  0  0
    3.6309  -12.7150   10.2080 H   0  0  0  0  0  0  0  0  0  0  0  0
    2.2075  -15.3752    9.8988 H   0  0  0  0  0  0  0  0  0  0  0  0
    0.8279  -17.0918    9.3662 H   0  0  0  0  0  0  0  0  0  0  0  0
   -1.5373  -16.3634    9.5439 H   0  0  0  0  0  0  0  0  0  0  0  0
   -2.2218  -14.8219   11.2498 H   0  0  0  0  0  0  0  0  0  0  0  0
   -0.3625  -13.4406   12.7166 H   0  0  0  0  0  0  0  0  0  0  0  0
    5.7774   -7.2846   15.1774 H   0  0  0  0  0  0  0  0  0  0  0  0
    6.9969   -8.5291   15.0541 H   0  0  0  0  0  0  0  0  0  0  0  0
   11.5474   -3.6276   14.4401 H   0  0  0  0  0  0  0  0  0  0  0  0
   11.1887   -1.1999   14.9511 H   0  0  0  0  0  0  0  0  0  0  0  0
    8.8813   -0.3484   15.1810 H   0  0  0  0  0  0  0  0  0  0  0  0
    6.9097   -1.9037   15.2010 H   0  0  0  0  0  0  0  0  0  0  0  0
  1  2  1  0
  2  3  1  0
  3  4  1  0
  4  5  2  0
  5  6  1  0
  6  7  1  0
  7  8  2  0
  8  9  1  0
  9 10  2  0
 10 11  1  0
 11 12  2  0
  6 13  2  0
 13 14  1  0
  2 15  1  0
 15 16  2  0
 15 17  1  0
 17 18  1  0
 18 19  2  0
 19 20  1  0
 20 21  2  0
 21 22  1  0
 22 23  2  0
 23 24  1  0
 24 25  2  0
 25 26  1  0
 14  4  1  0
 26 18  1  0
 12  7  1  0
 25 20  1  0
  1 27  1  0
  1 28  1  0
  1 29  1  0
  3 30  1  0
  3 31  1  0
  5 32  1  0
  8 33  1  0
  9 34  1  0
 10 35  1  0
 11 36  1  0
 12 37  1  0
 17 38  1  0
 17 39  1  0
 21 40  1  0
 22 41  1  0
 23 42  1  0
 24 43  1  0
M  END
>  <Energy>  (661) 
2228.7891740941536

>  <compound_id>  (661) 
76596

>  <target_id>  (661) 
1

>  <reference_id>  (661) 
2

>  <inspiration_ids>  (661) 
[2, 120]

>  <energy_score>  (661) 
2165.167741995531

>  <distance_score>  (661) 
9.690449885111693

>  <path>  (661) 
/opt/xchem-fragalysis-2/maxwin/BulkDock/SCRATCH/511022/C76596-P2/C76596-P2.minimised.mol

>  <scratch_subdir>  (661) 
/opt/xchem-fragalysis-2/maxwin/BulkDock/SCRATCH/511022/C76596-P2

>  <fragmenstein_runtime>  (661) 
22.15817952156067

>  <fragmenstein_outcome>  (661) 
too moved

>  <fragmenstein_mode>  (661) 
expansion

>  <fragmenstein_error>  (661) 


$$$$
C76596-P120
     RDKit          3D

 43 46  0  0  0  0  0  0  0  0999 V2000
    4.2193   -7.6808   15.2024 C   0  0  0  0  0  0  0  0  0  0  0  0
    4.1870   -8.7451   16.1217 N   0  0  0  0  0  0  0  0  0  0  0  0
    4.7305   -9.5967   14.7471 C   0  0  0  0  0  0  0  0  0  0  0  0
    3.6056  -10.6935   14.3025 C   0  0  0  0  0  0  0  0  0  0  0  0
    2.2676  -11.0807   13.2570 C   0  0  0  0  0  0  0  0  0  0  0  0
    1.1524  -12.3811   13.8122 C   0  0  0  0  0  0  0  0  0  0  0  0
    0.0851  -13.6667   12.9883 C   0  0  0  0  0  0  0  0  0  0  0  0
   -0.9186  -13.9707   14.0009 C   0  0  0  0  0  0  0  0  0  0  0  0
   -2.5098  -14.7337   14.4884 C   0  0  0  0  0  0  0  0  0  0  0  0
   -3.4463  -14.4730   12.8955 C   0  0  0  0  0  0  0  0  0  0  0  0
   -2.3589  -14.6446   11.4078 C   0  0  0  0  0  0  0  0  0  0  0  0
   -0.6120  -14.2271   11.6533 C   0  0  0  0  0  0  0  0  0  0  0  0
    1.8262  -12.6922   15.1201 N   0  0  0  0  0  0  0  0  0  0  0  0
    3.4401  -11.7429   15.4221 O   0  0  0  0  0  0  0  0  0  0  0  0
    5.0057   -9.0141   17.2464 C   0  0  0  0  0  0  0  0  0  0  0  0
    5.9875   -8.4483   17.6442 O   0  0  0  0  0  0  0  0  0  0  0  0
    4.5958  -10.1195   18.2393 C   0  0  0  0  0  0  0  0  0  0  0  0
    5.8391  -10.3330   19.1436 C   0  0  0  0  0  0  0  0  0  0  0  0
    7.0836  -10.5673   18.7399 N   0  0  0  0  0  0  0  0  0  0  0  0
    7.8656  -10.3660   19.8252 C   0  0  0  0  0  0  0  0  0  0  0  0
    9.2590  -10.4226   19.9654 C   0  0  0  0  0  0  0  0  0  0  0  0
    9.8101  -10.2147   21.2290 C   0  0  0  0  0  0  0  0  0  0  0  0
    8.9716  -10.0230   22.3323 C   0  0  0  0  0  0  0  0  0  0  0  0
    7.5665   -9.9558   22.2033 C   0  0  0  0  0  0  0  0  0  0  0  0
    7.0588  -10.1225   20.9216 C   0  0  0  0  0  0  0  0  0  0  0  0
    5.7466  -10.0893   20.4992 O   0  0  0  0  0  0  0  0  0  0  0  0
    3.6670   -6.8598   15.6736 H   0  0  0  0  0  0  0  0  0  0  0  0
    3.9590   -7.7716   14.1754 H   0  0  0  0  0  0  0  0  0  0  0  0
    5.2641   -7.3403   15.2377 H   0  0  0  0  0  0  0  0  0  0  0  0
    5.0089   -9.0749   13.8123 H   0  0  0  0  0  0  0  0  0  0  0  0
    5.7143   -9.9535   15.0205 H   0  0  0  0  0  0  0  0  0  0  0  0
    2.2779  -10.9182   12.1410 H   0  0  0  0  0  0  0  0  0  0  0  0
   -1.0466  -12.8841   13.9321 H   0  0  0  0  0  0  0  0  0  0  0  0
   -2.7509  -14.9003   15.5388 H   0  0  0  0  0  0  0  0  0  0  0  0
   -4.5296  -14.4586   12.8186 H   0  0  0  0  0  0  0  0  0  0  0  0
   -2.7098  -14.9779   10.4385 H   0  0  0  0  0  0  0  0  0  0  0  0
    0.0302  -14.7939   10.9887 H   0  0  0  0  0  0  0  0  0  0  0  0
    4.3163  -11.0390   17.7350 H   0  0  0  0  0  0  0  0  0  0  0  0
    3.7636   -9.7519   18.8445 H   0  0  0  0  0  0  0  0  0  0  0  0
    9.8771  -10.6895   19.1180 H   0  0  0  0  0  0  0  0  0  0  0  0
   10.8870  -10.2780   21.3656 H   0  0  0  0  0  0  0  0  0  0  0  0
    9.4123   -9.9236   23.3238 H   0  0  0  0  0  0  0  0  0  0  0  0
    6.9148   -9.7962   23.0535 H   0  0  0  0  0  0  0  0  0  0  0  0
  1  2  1  0
  2  3  1  0
  3  4  1  0
  4  5  2  0
  5  6  1  0
  6  7  1  0
  7  8  2  0
  8  9  1  0
  9 10  2  0
 10 11  1  0
 11 12  2  0
  6 13  2  0
 13 14  1  0
  2 15  1  0
 15 16  2  0
 15 17  1  0
 17 18  1  0
 18 19  2  0
 19 20  1  0
 20 21  2  0
 21 22  1  0
 22 23  2  0
 23 24  1  0
 24 25  2  0
 25 26  1  0
 14  4  1  0
 26 18  1  0
 12  7  1  0
 25 20  1  0
  1 27  1  0
  1 28  1  0
  1 29  1  0
  3 30  1  0
  3 31  1  0
  5 32  1  0
  8 33  1  0
  9 34  1  0
 10 35  1  0
 11 36  1  0
 12 37  1  0
 17 38  1  0
 17 39  1  0
 21 40  1  0
 22 41  1  0
 23 42  1  0
 24 43  1  0
M  END
>  <Energy>  (662) 
750.83674169076903

>  <compound_id>  (662) 
76596

>  <target_id>  (662) 
1

>  <reference_id>  (662) 
120

>  <inspiration_ids>  (662) 
[2, 120]

>  <energy_score>  (662) 
687.2153095921113

>  <distance_score>  (662) 
12.779336673326528

>  <path>  (662) 
/opt/xchem-fragalysis-2/maxwin/BulkDock/SCRATCH/511022/C76596-P120/C76596-P120.minimised.mol

>  <scratch_subdir>  (662) 
/opt/xchem-fragalysis-2/maxwin/BulkDock/SCRATCH/511022/C76596-P120

>  <fragmenstein_runtime>  (662) 
26.186106204986572

>  <fragmenstein_outcome>  (662) 
too moved

>  <fragmenstein_mode>  (662) 
expansion

>  <fragmenstein_error>  (662) 


$$$$
C76597-P2
     RDKit          3D

 42 47  0  0  0  0  0  0  0  0999 V2000
   -8.2502  -19.3786    8.6734 C   0  0  0  0  0  0  0  0  0  0  0  0
   -7.9812  -18.1182    8.1097 C   0  0  0  0  0  0  0  0  0  0  0  0
   -6.3476  -17.3617    8.3732 C   0  0  0  0  0  0  0  0  0  0  0  0
   -4.4289  -17.3473    8.4387 C   0  0  0  0  0  0  0  0  0  0  0  0
   -2.9397  -16.4656    9.1505 N   0  0  0  0  0  0  0  0  0  0  0  0
   -3.2078  -15.1362    9.5183 N   0  0  0  0  0  0  0  0  0  0  0  0
   -2.7648  -15.0779   10.7535 C   0  0  0  0  0  0  0  0  0  0  0  0
   -1.4954  -15.1064   10.7813 C   0  0  0  0  0  0  0  0  0  0  0  0
   -1.3893  -16.3117   10.0322 C   0  0  0  0  0  0  0  0  0  0  0  0
   -0.0218  -16.5904    9.8702 N   0  0  0  0  0  0  0  0  0  0  0  0
    0.9002  -15.6562   10.3727 C   0  0  0  0  0  0  0  0  0  0  0  0
    0.7581  -14.1885   11.1856 N   0  0  0  0  0  0  0  0  0  0  0  0
    1.6036  -12.7166   10.9419 N   0  0  0  0  0  0  0  0  0  0  0  0
    0.8488  -11.6492   11.3964 C   0  0  0  0  0  0  0  0  0  0  0  0
    1.4572   -9.8580   10.9281 C   0  0  0  0  0  0  0  0  0  0  0  0
    1.4271   -7.5075   11.1292 S   0  0  0  0  0  0  0  0  0  0  0  0
    2.7307   -5.8092   11.8173 C   0  0  0  0  0  0  0  0  0  0  0  0
    2.3252   -5.0011   12.8622 N   0  0  0  0  0  0  0  0  0  0  0  0
    2.9405   -3.7505   12.7666 C   0  0  0  0  0  0  0  0  0  0  0  0
    3.0151   -2.6354   13.6265 C   0  0  0  0  0  0  0  0  0  0  0  0
    3.8498   -1.5508   13.2723 C   0  0  0  0  0  0  0  0  0  0  0  0
    4.5597   -1.5513   12.0687 C   0  0  0  0  0  0  0  0  0  0  0  0
    4.4507   -2.6318   11.1842 C   0  0  0  0  0  0  0  0  0  0  0  0
    3.6512   -3.7035   11.6006 C   0  0  0  0  0  0  0  0  0  0  0  0
    3.4732   -4.8961   10.9893 O   0  0  0  0  0  0  0  0  0  0  0  0
   -0.3941  -12.3844   11.6815 N   0  0  0  0  0  0  0  0  0  0  0  0
   -0.4242  -13.7964   11.4315 C   0  0  0  0  0  0  0  0  0  0  0  0
   -5.8904  -18.3181    8.9890 C   0  0  0  0  0  0  0  0  0  0  0  0
   -7.2691  -19.2872    9.5879 C   0  0  0  0  0  0  0  0  0  0  0  0
   -9.1042  -20.0098    8.5703 H   0  0  0  0  0  0  0  0  0  0  0  0
   -8.3687  -18.0922    7.0943 H   0  0  0  0  0  0  0  0  0  0  0  0
   -6.8360  -16.3067    8.7470 H   0  0  0  0  0  0  0  0  0  0  0  0
   -3.2671  -14.6594   11.5709 H   0  0  0  0  0  0  0  0  0  0  0  0
    1.9344  -15.9069   10.0865 H   0  0  0  0  0  0  0  0  0  0  0  0
    0.8925   -9.7595   10.0113 H   0  0  0  0  0  0  0  0  0  0  0  0
    0.6366   -9.7642   11.6169 H   0  0  0  0  0  0  0  0  0  0  0  0
    2.4723   -2.6366   14.5653 H   0  0  0  0  0  0  0  0  0  0  0  0
    3.9330   -0.6996   13.9446 H   0  0  0  0  0  0  0  0  0  0  0  0
    5.1954   -0.7058   11.8086 H   0  0  0  0  0  0  0  0  0  0  0  0
    4.9919   -2.6589   10.2460 H   0  0  0  0  0  0  0  0  0  0  0  0
   -5.9861  -19.0996    8.3560 H   0  0  0  0  0  0  0  0  0  0  0  0
   -7.1418  -19.8461   10.5147 H   0  0  0  0  0  0  0  0  0  0  0  0
  1  2  2  0
  2  3  1  0
  3  4  2  0
  4  5  1  0
  5  6  1  0
  6  7  2  0
  7  8  1  0
  8  9  2  0
  9 10  1  0
 10 11  2  0
 11 12  1  0
 12 13  1  0
 13 14  2  0
 14 15  1  0
 15 16  1  0
 16 17  1  0
 17 18  2  0
 18 19  1  0
 19 20  2  0
 20 21  1  0
 21 22  2  0
 22 23  1  0
 23 24  2  0
 24 25  1  0
 14 26  1  0
 26 27  2  0
  4 28  1  0
 28 29  2  0
 29  1  1  0
  9  5  1  0
 27 12  1  0
 27  8  1  0
 25 17  1  0
 24 19  1  0
  1 30  1  0
  2 31  1  0
  3 32  1  0
  7 33  1  0
 11 34  1  0
 15 35  1  0
 15 36  1  0
 20 37  1  0
 21 38  1  0
 22 39  1  0
 23 40  1  0
 28 41  1  0
 29 42  1  0
M  END
>  <Energy>  (663) 
1477.302144913411

>  <compound_id>  (663) 
76597

>  <target_id>  (663) 
1

>  <reference_id>  (663) 
2

>  <inspiration_ids>  (663) 
[2, 120]

>  <energy_score>  (663) 
1292.077936406929

>  <distance_score>  (663) 
11.276350522651411

>  <path>  (663) 
/opt/xchem-fragalysis-2/maxwin/BulkDock/SCRATCH/511022/C76597-P2/C76597-P2.minimised.mol

>  <scratch_subdir>  (663) 
/opt/xchem-fragalysis-2/maxwin/BulkDock/SCRATCH/511022/C76597-P2

>  <fragmenstein_runtime>  (663) 
23.66762137413025

>  <fragmenstein_outcome>  (663) 
too moved

>  <fragmenstein_mode>  (663) 
expansion

>  <fragmenstein_error>  (663) 


$$$$
C76597-P120
     RDKit          3D

 42 47  0  0  0  0  0  0  0  0999 V2000
   -9.2618  -21.5447   11.4734 C   0  0  0  0  0  0  0  0  0  0  0  0
   -8.9415  -20.4381   10.7831 C   0  0  0  0  0  0  0  0  0  0  0  0
   -7.7551  -19.5484   11.1508 C   0  0  0  0  0  0  0  0  0  0  0  0
   -6.7269  -19.3356   12.0808 C   0  0  0  0  0  0  0  0  0  0  0  0
   -6.3905  -17.5787   12.6821 N   0  0  0  0  0  0  0  0  0  0  0  0
   -6.4282  -16.7226   11.5123 N   0  0  0  0  0  0  0  0  0  0  0  0
   -5.7948  -15.4440   11.7872 C   0  0  0  0  0  0  0  0  0  0  0  0
   -5.3566  -14.9073   13.1102 C   0  0  0  0  0  0  0  0  0  0  0  0
   -5.6902  -16.2121   13.7308 C   0  0  0  0  0  0  0  0  0  0  0  0
   -4.5555  -16.1923   14.5373 N   0  0  0  0  0  0  0  0  0  0  0  0
   -3.5103  -15.4735   13.9754 C   0  0  0  0  0  0  0  0  0  0  0  0
   -3.1513  -14.5326   12.3255 N   0  0  0  0  0  0  0  0  0  0  0  0
   -1.3295  -14.1663   11.6881 N   0  0  0  0  0  0  0  0  0  0  0  0
   -0.2908  -13.2385   12.7143 C   0  0  0  0  0  0  0  0  0  0  0  0
    1.0546  -11.6319   12.7664 C   0  0  0  0  0  0  0  0  0  0  0  0
    3.3022  -10.7359   13.6434 S   0  0  0  0  0  0  0  0  0  0  0  0
    4.1714   -9.2957   13.4777 C   0  0  0  0  0  0  0  0  0  0  0  0
    4.3136   -8.0344   13.0508 N   0  0  0  0  0  0  0  0  0  0  0  0
    5.6019   -7.4958   13.9023 C   0  0  0  0  0  0  0  0  0  0  0  0
    6.3969   -6.8446   15.4000 C   0  0  0  0  0  0  0  0  0  0  0  0
    5.8072   -6.3315   16.7334 C   0  0  0  0  0  0  0  0  0  0  0  0
    4.4302   -6.0982   16.8488 C   0  0  0  0  0  0  0  0  0  0  0  0
    3.6527   -6.4597   15.6993 C   0  0  0  0  0  0  0  0  0  0  0  0
    4.1236   -7.3734   14.3357 C   0  0  0  0  0  0  0  0  0  0  0  0
    5.1240   -8.9010   14.1913 O   0  0  0  0  0  0  0  0  0  0  0  0
   -1.6749  -13.7173   13.7173 N   0  0  0  0  0  0  0  0  0  0  0  0
   -3.5104  -13.8875   13.4526 C   0  0  0  0  0  0  0  0  0  0  0  0
   -7.1201  -20.6976   12.6521 C   0  0  0  0  0  0  0  0  0  0  0  0
   -8.2969  -21.7454   12.3931 C   0  0  0  0  0  0  0  0  0  0  0  0
  -10.0893  -22.2014   11.2807 H   0  0  0  0  0  0  0  0  0  0  0  0
   -9.3873  -20.2494    9.8139 H   0  0  0  0  0  0  0  0  0  0  0  0
   -7.5138  -18.9748   10.2976 H   0  0  0  0  0  0  0  0  0  0  0  0
   -6.0163  -14.8404   10.9170 H   0  0  0  0  0  0  0  0  0  0  0  0
   -2.7287  -15.4258   14.8081 H   0  0  0  0  0  0  0  0  0  0  0  0
    1.2635  -11.6517   11.6835 H   0  0  0  0  0  0  0  0  0  0  0  0
    1.1149  -12.1804   13.7248 H   0  0  0  0  0  0  0  0  0  0  0  0
    7.4726   -6.7777   15.3464 H   0  0  0  0  0  0  0  0  0  0  0  0
    6.4484   -6.1380   17.5801 H   0  0  0  0  0  0  0  0  0  0  0  0
    3.9845   -5.6171   17.7096 H   0  0  0  0  0  0  0  0  0  0  0  0
    2.6737   -5.9817   15.6326 H   0  0  0  0  0  0  0  0  0  0  0  0
   -6.3621  -21.3165   13.0482 H   0  0  0  0  0  0  0  0  0  0  0  0
   -8.5311  -22.4554   13.1599 H   0  0  0  0  0  0  0  0  0  0  0  0
  1  2  2  0
  2  3  1  0
  3  4  2  0
  4  5  1  0
  5  6  1  0
  6  7  2  0
  7  8  1  0
  8  9  2  0
  9 10  1  0
 10 11  2  0
 11 12  1  0
 12 13  1  0
 13 14  2  0
 14 15  1  0
 15 16  1  0
 16 17  1  0
 17 18  2  0
 18 19  1  0
 19 20  2  0
 20 21  1  0
 21 22  2  0
 22 23  1  0
 23 24  2  0
 24 25  1  0
 14 26  1  0
 26 27  2  0
  4 28  1  0
 28 29  2  0
 29  1  1  0
  9  5  1  0
 27 12  1  0
 27  8  1  0
 25 17  1  0
 24 19  1  0
  1 30  1  0
  2 31  1  0
  3 32  1  0
  7 33  1  0
 11 34  1  0
 15 35  1  0
 15 36  1  0
 20 37  1  0
 21 38  1  0
 22 39  1  0
 23 40  1  0
 28 41  1  0
 29 42  1  0
M  END
>  <Energy>  (664) 
2178.8378400563979

>  <compound_id>  (664) 
76597

>  <target_id>  (664) 
1

>  <reference_id>  (664) 
120

>  <inspiration_ids>  (664) 
[2, 120]

>  <energy_score>  (664) 
1993.613631549927

>  <distance_score>  (664) 
11.988558155405348

>  <path>  (664) 
/opt/xchem-fragalysis-2/maxwin/BulkDock/SCRATCH/511022/C76597-P120/C76597-P120.minimised.mol

>  <scratch_subdir>  (664) 
/opt/xchem-fragalysis-2/maxwin/BulkDock/SCRATCH/511022/C76597-P120

>  <fragmenstein_runtime>  (664) 
22.37836742401123

>  <fragmenstein_outcome>  (664) 
too moved

>  <fragmenstein_mode>  (664) 
expansion

>  <fragmenstein_error>  (664) 


$$$$
C76598-P2
     RDKit          3D

 42 44  0  0  0  0  0  0  0  0999 V2000
   12.2082   -3.2911   16.6789 C   0  0  0  0  0  0  0  0  0  0  0  0
   13.1889   -2.5978   15.7755 C   0  0  0  0  0  0  0  0  0  0  0  0
   14.2166   -1.8972   16.5494 N   0  0  0  0  0  0  0  0  0  0  0  0
   13.8380   -0.6007   17.1016 C   0  0  0  0  0  0  0  0  0  0  0  0
   14.2218    0.5304   16.2084 C   0  0  0  0  0  0  0  0  0  0  0  0
   14.8189    0.4643   15.0314 N   0  0  0  0  0  0  0  0  0  0  0  0
   14.7325    1.7331   14.5497 C   0  0  0  0  0  0  0  0  0  0  0  0
   15.0922    2.2651   13.3083 C   0  0  0  0  0  0  0  0  0  0  0  0
   14.8046    3.6153   13.0761 C   0  0  0  0  0  0  0  0  0  0  0  0
   14.2102    4.4106   14.0664 C   0  0  0  0  0  0  0  0  0  0  0  0
   13.8734    3.8940   15.3227 C   0  0  0  0  0  0  0  0  0  0  0  0
   14.1381    2.5482   15.4990 C   0  0  0  0  0  0  0  0  0  0  0  0
   13.8139    1.7811   16.5776 O   0  0  0  0  0  0  0  0  0  0  0  0
   12.4531   -1.8987   14.5771 C   0  0  0  0  0  0  0  0  0  0  0  0
   13.4111   -1.7119   13.4136 C   0  0  0  0  0  0  0  0  0  0  0  0
   11.8358   -0.6066   14.8414 N   0  0  0  0  0  0  0  0  0  0  0  0
   10.4897   -0.2573   15.5010 C   0  0  0  0  0  0  0  0  0  0  0  0
    9.6950   -0.9447   16.0075 O   0  0  0  0  0  0  0  0  0  0  0  0
   10.2490    1.1907   15.4215 C   0  0  0  0  0  0  0  0  0  0  0  0
   10.8534    2.2171   14.6319 C   0  0  0  0  0  0  0  0  0  0  0  0
   10.2486    3.4026   14.9796 C   0  0  0  0  0  0  0  0  0  0  0  0
    9.2739    3.1808   15.8919 O   0  0  0  0  0  0  0  0  0  0  0  0
    9.2619    1.8469   16.1347 C   0  0  0  0  0  0  0  0  0  0  0  0
   12.6819   -3.7167   17.5692 H   0  0  0  0  0  0  0  0  0  0  0  0
   11.4816   -2.5516   16.9617 H   0  0  0  0  0  0  0  0  0  0  0  0
   11.6890   -4.0998   16.1576 H   0  0  0  0  0  0  0  0  0  0  0  0
   13.7732   -3.4172   15.3833 H   0  0  0  0  0  0  0  0  0  0  0  0
   15.0312   -1.7380   15.9495 H   0  0  0  0  0  0  0  0  0  0  0  0
   12.7766   -0.5543   17.3434 H   0  0  0  0  0  0  0  0  0  0  0  0
   14.3788   -0.4712   18.0460 H   0  0  0  0  0  0  0  0  0  0  0  0
   15.5560    1.6445   12.5502 H   0  0  0  0  0  0  0  0  0  0  0  0
   15.0612    4.0590   12.1157 H   0  0  0  0  0  0  0  0  0  0  0  0
   14.0120    5.4611   13.8568 H   0  0  0  0  0  0  0  0  0  0  0  0
   13.4021    4.4917   16.0935 H   0  0  0  0  0  0  0  0  0  0  0  0
   11.6339   -2.5494   14.2471 H   0  0  0  0  0  0  0  0  0  0  0  0
   13.4872   -2.6236   12.8223 H   0  0  0  0  0  0  0  0  0  0  0  0
   14.4310   -1.4861   13.7306 H   0  0  0  0  0  0  0  0  0  0  0  0
   13.0990   -0.9130   12.7363 H   0  0  0  0  0  0  0  0  0  0  0  0
   12.2342    0.2240   14.4292 H   0  0  0  0  0  0  0  0  0  0  0  0
   11.6335    2.1258   13.8912 H   0  0  0  0  0  0  0  0  0  0  0  0
   10.3748    4.4306   14.6695 H   0  0  0  0  0  0  0  0  0  0  0  0
    8.4898    1.5127   16.8118 H   0  0  0  0  0  0  0  0  0  0  0  0
  1  2  1  0
  2  3  1  0
  3  4  1  0
  4  5  1  0
  5  6  2  0
  6  7  1  0
  7  8  2  0
  8  9  1  0
  9 10  2  0
 10 11  1  0
 11 12  2  0
 12 13  1  0
  2 14  1  0
 14 15  1  0
 14 16  1  0
 16 17  1  0
 17 18  2  0
 17 19  1  0
 19 20  1  0
 20 21  2  0
 21 22  1  0
 22 23  1  0
 13  5  1  0
 23 19  2  0
 12  7  1  0
  1 24  1  0
  1 25  1  0
  1 26  1  0
  2 27  1  0
  3 28  1  0
  4 29  1  0
  4 30  1  0
  8 31  1  0
  9 32  1  0
 10 33  1  0
 11 34  1  0
 14 35  1  0
 15 36  1  0
 15 37  1  0
 15 38  1  0
 16 39  1  0
 20 40  1  0
 21 41  1  0
 23 42  1  0
M  END
>  <Energy>  (665) 
66.670060583386956

>  <compound_id>  (665) 
76598

>  <target_id>  (665) 
1

>  <reference_id>  (665) 
2

>  <inspiration_ids>  (665) 
[2, 120]

>  <energy_score>  (665) 
-22.51423634362834

>  <distance_score>  (665) 
1.3244228610643143

>  <path>  (665) 
/opt/xchem-fragalysis-2/maxwin/BulkDock/SCRATCH/511022/C76598-P2/C76598-P2.minimised.mol

>  <scratch_subdir>  (665) 
/opt/xchem-fragalysis-2/maxwin/BulkDock/SCRATCH/511022/C76598-P2

>  <fragmenstein_runtime>  (665) 
8.657397985458374

>  <fragmenstein_outcome>  (665) 
too moved

>  <fragmenstein_mode>  (665) 
expansion

>  <fragmenstein_error>  (665) 


$$$$
C76598-P120
     RDKit          3D

 42 44  0  0  0  0  0  0  0  0999 V2000
   15.8232   -2.4243   16.4287 C   0  0  0  0  0  0  0  0  0  0  0  0
   14.4269   -1.8379   16.2024 C   0  0  0  0  0  0  0  0  0  0  0  0
   13.8813   -2.1719   14.8723 N   0  0  0  0  0  0  0  0  0  0  0  0
   14.6953   -1.7707   13.7094 C   0  0  0  0  0  0  0  0  0  0  0  0
   14.5115   -0.3456   13.3089 C   0  0  0  0  0  0  0  0  0  0  0  0
   13.4101    0.2429   12.8779 N   0  0  0  0  0  0  0  0  0  0  0  0
   13.7846    1.5538   12.7413 C   0  0  0  0  0  0  0  0  0  0  0  0
   13.0562    2.6782   12.3382 C   0  0  0  0  0  0  0  0  0  0  0  0
   13.7066    3.9204   12.3409 C   0  0  0  0  0  0  0  0  0  0  0  0
   15.0471    4.0351   12.7302 C   0  0  0  0  0  0  0  0  0  0  0  0
   15.7927    2.9166   13.1216 C   0  0  0  0  0  0  0  0  0  0  0  0
   15.1124    1.7071   13.1048 C   0  0  0  0  0  0  0  0  0  0  0  0
   15.5969    0.4792   13.4487 O   0  0  0  0  0  0  0  0  0  0  0  0
   14.3414   -0.3216   16.5416 C   0  0  0  0  0  0  0  0  0  0  0  0
   14.6763   -0.0239   17.9966 C   0  0  0  0  0  0  0  0  0  0  0  0
   13.0096    0.1653   16.2389 N   0  0  0  0  0  0  0  0  0  0  0  0
   12.5367    1.4808   15.9472 C   0  0  0  0  0  0  0  0  0  0  0  0
   13.1279    2.5066   15.8001 O   0  0  0  0  0  0  0  0  0  0  0  0
   11.0734    1.4925   15.8806 C   0  0  0  0  0  0  0  0  0  0  0  0
   10.2050    2.5447   16.2909 C   0  0  0  0  0  0  0  0  0  0  0  0
    8.9320    2.0311   16.2616 C   0  0  0  0  0  0  0  0  0  0  0  0
    8.9466    0.7601   15.7794 O   0  0  0  0  0  0  0  0  0  0  0  0
   10.2355    0.4709   15.4721 C   0  0  0  0  0  0  0  0  0  0  0  0
   16.5978   -1.8466   15.9143 H   0  0  0  0  0  0  0  0  0  0  0  0
   16.0711   -2.4377   17.4951 H   0  0  0  0  0  0  0  0  0  0  0  0
   15.8754   -3.4617   16.0791 H   0  0  0  0  0  0  0  0  0  0  0  0
   13.7609   -2.3591   16.9046 H   0  0  0  0  0  0  0  0  0  0  0  0
   12.9721   -1.7209   14.7532 H   0  0  0  0  0  0  0  0  0  0  0  0
   14.3596   -2.3754   12.8583 H   0  0  0  0  0  0  0  0  0  0  0  0
   15.7537   -2.0150   13.8383 H   0  0  0  0  0  0  0  0  0  0  0  0
   12.0125    2.5904   12.0612 H   0  0  0  0  0  0  0  0  0  0  0  0
   13.1537    4.8120   12.0526 H   0  0  0  0  0  0  0  0  0  0  0  0
   15.5180    5.0163   12.7363 H   0  0  0  0  0  0  0  0  0  0  0  0
   16.8267    2.9878   13.4320 H   0  0  0  0  0  0  0  0  0  0  0  0
   15.0419    0.2553   15.9319 H   0  0  0  0  0  0  0  0  0  0  0  0
   14.5021    1.0320   18.2325 H   0  0  0  0  0  0  0  0  0  0  0  0
   15.7277   -0.2368   18.2130 H   0  0  0  0  0  0  0  0  0  0  0  0
   14.0653   -0.6178   18.6809 H   0  0  0  0  0  0  0  0  0  0  0  0
   12.2185   -0.4456   16.3761 H   0  0  0  0  0  0  0  0  0  0  0  0
   10.4970    3.5207   16.6574 H   0  0  0  0  0  0  0  0  0  0  0  0
    7.9574    2.4203   16.5260 H   0  0  0  0  0  0  0  0  0  0  0  0
   10.3943   -0.5006   15.0208 H   0  0  0  0  0  0  0  0  0  0  0  0
  1  2  1  0
  2  3  1  0
  3  4  1  0
  4  5  1  0
  5  6  2  0
  6  7  1  0
  7  8  2  0
  8  9  1  0
  9 10  2  0
 10 11  1  0
 11 12  2  0
 12 13  1  0
  2 14  1  0
 14 15  1  0
 14 16  1  0
 16 17  1  0
 17 18  2  0
 17 19  1  0
 19 20  1  0
 20 21  2  0
 21 22  1  0
 22 23  1  0
 13  5  1  0
 23 19  2  0
 12  7  1  0
  1 24  1  0
  1 25  1  0
  1 26  1  0
  2 27  1  0
  3 28  1  0
  4 29  1  0
  4 30  1  0
  8 31  1  0
  9 32  1  0
 10 33  1  0
 11 34  1  0
 14 35  1  0
 15 36  1  0
 15 37  1  0
 15 38  1  0
 16 39  1  0
 20 40  1  0
 21 41  1  0
 23 42  1  0
M  END
>  <Energy>  (666) 
51.938527666202866

>  <compound_id>  (666) 
76598

>  <target_id>  (666) 
1

>  <reference_id>  (666) 
120

>  <inspiration_ids>  (666) 
[2, 120]

>  <energy_score>  (666) 
-22.665238037273866

>  <distance_score>  (666) 
2.713594971821162

>  <path>  (666) 
/opt/xchem-fragalysis-2/maxwin/BulkDock/SCRATCH/511022/C76598-P120/C76598-P120.minimised.mol

>  <scratch_subdir>  (666) 
/opt/xchem-fragalysis-2/maxwin/BulkDock/SCRATCH/511022/C76598-P120

>  <fragmenstein_runtime>  (666) 
8.586359977722168

>  <fragmenstein_outcome>  (666) 
too moved

>  <fragmenstein_mode>  (666) 
expansion

>  <fragmenstein_error>  (666) 


$$$$
C11103-P2
     RDKit          3D

 42 44  0  0  0  0  0  0  0  0999 V2000
    4.6234   -9.8662   13.7814 C   0  0  0  0  0  0  0  0  0  0  0  0
    4.7354   -7.9912   13.4595 C   0  0  0  0  0  0  0  0  0  0  0  0
    6.4053   -7.5674   14.4330 N   0  0  0  0  0  0  0  0  0  0  0  0
    7.5207   -6.1806   15.4043 C   0  0  0  0  0  0  0  0  0  0  0  0
    8.6142   -4.3689   15.1618 C   0  0  0  0  0  0  0  0  0  0  0  0
    9.9835   -4.0718   14.9373 N   0  0  0  0  0  0  0  0  0  0  0  0
   10.1725   -2.7089   14.9332 C   0  0  0  0  0  0  0  0  0  0  0  0
   11.3565   -1.9472   14.9141 C   0  0  0  0  0  0  0  0  0  0  0  0
   11.2604   -0.5581   15.0716 C   0  0  0  0  0  0  0  0  0  0  0  0
   10.0165    0.0440   15.2717 C   0  0  0  0  0  0  0  0  0  0  0  0
    8.8346   -0.7177   15.2838 C   0  0  0  0  0  0  0  0  0  0  0  0
    8.9377   -2.0870   15.0615 C   0  0  0  0  0  0  0  0  0  0  0  0
    7.9215   -3.0542   15.0979 O   0  0  0  0  0  0  0  0  0  0  0  0
    3.5845   -8.0168   11.6884 C   0  0  0  0  0  0  0  0  0  0  0  0
    3.9490   -6.8088   10.6415 C   0  0  0  0  0  0  0  0  0  0  0  0
    2.8486   -9.7718   11.4837 N   0  0  0  0  0  0  0  0  0  0  0  0
    1.7496  -10.2170   10.7991 C   0  0  0  0  0  0  0  0  0  0  0  0
    1.0322   -9.6545   10.0628 O   0  0  0  0  0  0  0  0  0  0  0  0
    1.1638  -11.8221   11.1483 C   0  0  0  0  0  0  0  0  0  0  0  0
    0.3886  -12.5952   12.2320 C   0  0  0  0  0  0  0  0  0  0  0  0
    0.1299  -13.9313   11.8355 C   0  0  0  0  0  0  0  0  0  0  0  0
   -0.8419  -13.6873   10.9310 C   0  0  0  0  0  0  0  0  0  0  0  0
   -0.8764  -11.7696   10.8982 S   0  0  0  0  0  0  0  0  0  0  0  0
    4.7882  -10.6004   13.0142 H   0  0  0  0  0  0  0  0  0  0  0  0
    3.7077  -10.2343   14.2167 H   0  0  0  0  0  0  0  0  0  0  0  0
    5.4471  -10.2947   14.2936 H   0  0  0  0  0  0  0  0  0  0  0  0
    5.5366   -7.5457   12.8762 H   0  0  0  0  0  0  0  0  0  0  0  0
    7.1378   -8.1557   13.9934 H   0  0  0  0  0  0  0  0  0  0  0  0
    8.3237   -6.8558   15.0921 H   0  0  0  0  0  0  0  0  0  0  0  0
    6.9561   -6.1264   16.3382 H   0  0  0  0  0  0  0  0  0  0  0  0
   12.3148   -2.4383   14.7946 H   0  0  0  0  0  0  0  0  0  0  0  0
   12.1633    0.0473   15.0498 H   0  0  0  0  0  0  0  0  0  0  0  0
    9.9583    1.1209   15.4116 H   0  0  0  0  0  0  0  0  0  0  0  0
    7.8740   -0.2854   15.4895 H   0  0  0  0  0  0  0  0  0  0  0  0
    2.6599   -7.4405   11.7674 H   0  0  0  0  0  0  0  0  0  0  0  0
    4.7155   -7.0664    9.9051 H   0  0  0  0  0  0  0  0  0  0  0  0
    4.2229   -5.9321   11.2311 H   0  0  0  0  0  0  0  0  0  0  0  0
    3.0625   -6.4279   10.1226 H   0  0  0  0  0  0  0  0  0  0  0  0
    3.1637  -10.4905   12.0783 H   0  0  0  0  0  0  0  0  0  0  0  0
    0.5191  -12.4186   13.2852 H   0  0  0  0  0  0  0  0  0  0  0  0
    0.1252  -14.8456   12.3902 H   0  0  0  0  0  0  0  0  0  0  0  0
   -1.6655  -14.2693   10.5327 H   0  0  0  0  0  0  0  0  0  0  0  0
  1  2  1  0
  2  3  1  0
  3  4  1  0
  4  5  1  0
  5  6  2  0
  6  7  1  0
  7  8  2  0
  8  9  1  0
  9 10  2  0
 10 11  1  0
 11 12  2  0
 12 13  1  0
  2 14  1  0
 14 15  1  0
 14 16  1  0
 16 17  1  0
 17 18  2  0
 17 19  1  0
 19 20  2  0
 20 21  1  0
 21 22  2  0
 22 23  1  0
 13  5  1  0
 23 19  1  0
 12  7  1  0
  1 24  1  0
  1 25  1  0
  1 26  1  0
  2 27  1  0
  3 28  1  0
  4 29  1  0
  4 30  1  0
  8 31  1  0
  9 32  1  0
 10 33  1  0
 11 34  1  0
 14 35  1  0
 15 36  1  0
 15 37  1  0
 15 38  1  0
 16 39  1  0
 20 40  1  0
 21 41  1  0
 22 42  1  0
M  END
>  <Energy>  (667) 
798.67400952420314

>  <compound_id>  (667) 
11103

>  <target_id>  (667) 
1

>  <reference_id>  (667) 
2

>  <inspiration_ids>  (667) 
[2, 120]

>  <energy_score>  (667) 
694.8116941854607

>  <distance_score>  (667) 
10.213210462553304

>  <path>  (667) 
/opt/xchem-fragalysis-2/maxwin/BulkDock/SCRATCH/511022/C11103-P2/C11103-P2.minimised.mol

>  <scratch_subdir>  (667) 
/opt/xchem-fragalysis-2/maxwin/BulkDock/SCRATCH/511022/C11103-P2

>  <fragmenstein_runtime>  (667) 
22.625024557113647

>  <fragmenstein_outcome>  (667) 
too moved

>  <fragmenstein_mode>  (667) 
expansion

>  <fragmenstein_error>  (667) 


$$$$
C11103-P120
     RDKit          3D

 42 44  0  0  0  0  0  0  0  0999 V2000
    7.1229   -7.7646   12.8888 C   0  0  0  0  0  0  0  0  0  0  0  0
    6.3309   -8.0141   14.1560 C   0  0  0  0  0  0  0  0  0  0  0  0
    6.3942   -6.6732   15.4142 N   0  0  0  0  0  0  0  0  0  0  0  0
    7.6719   -5.8269   15.6201 C   0  0  0  0  0  0  0  0  0  0  0  0
    8.7074   -4.1303   15.1455 C   0  0  0  0  0  0  0  0  0  0  0  0
   10.0669   -3.9202   15.0148 N   0  0  0  0  0  0  0  0  0  0  0  0
   10.2891   -2.5694   15.0074 C   0  0  0  0  0  0  0  0  0  0  0  0
   11.4924   -1.8415   14.9775 C   0  0  0  0  0  0  0  0  0  0  0  0
   11.4364   -0.4473   15.1013 C   0  0  0  0  0  0  0  0  0  0  0  0
   10.2105    0.1963   15.2789 C   0  0  0  0  0  0  0  0  0  0  0  0
    9.0066   -0.5284   15.3051 C   0  0  0  0  0  0  0  0  0  0  0  0
    9.0748   -1.9060   15.1198 C   0  0  0  0  0  0  0  0  0  0  0  0
    8.0302   -2.8424   15.0950 O   0  0  0  0  0  0  0  0  0  0  0  0
    4.9860   -9.5097   13.8138 C   0  0  0  0  0  0  0  0  0  0  0  0
    4.2667   -8.2016   13.5714 C   0  0  0  0  0  0  0  0  0  0  0  0
    3.6221  -10.3977   13.4218 N   0  0  0  0  0  0  0  0  0  0  0  0
    2.8133  -10.7220   11.8248 C   0  0  0  0  0  0  0  0  0  0  0  0
    3.1632  -10.4264   10.6925 O   0  0  0  0  0  0  0  0  0  0  0  0
    1.1797  -11.4844   11.9714 C   0  0  0  0  0  0  0  0  0  0  0  0
    0.5539  -12.3376   13.0469 C   0  0  0  0  0  0  0  0  0  0  0  0
    0.0228  -13.5563   12.6079 C   0  0  0  0  0  0  0  0  0  0  0  0
   -0.4336  -13.2453   11.3944 C   0  0  0  0  0  0  0  0  0  0  0  0
   -0.3254  -11.4797   11.2398 S   0  0  0  0  0  0  0  0  0  0  0  0
    7.9093   -7.0973   12.7270 H   0  0  0  0  0  0  0  0  0  0  0  0
    7.4091   -8.5046   12.2192 H   0  0  0  0  0  0  0  0  0  0  0  0
    6.3487   -7.2734   12.5417 H   0  0  0  0  0  0  0  0  0  0  0  0
    7.1344   -8.2652   14.7510 H   0  0  0  0  0  0  0  0  0  0  0  0
    6.3514   -7.1079   16.3047 H   0  0  0  0  0  0  0  0  0  0  0  0
    8.2617   -6.6312   15.1502 H   0  0  0  0  0  0  0  0  0  0  0  0
    7.3103   -5.6889   16.6150 H   0  0  0  0  0  0  0  0  0  0  0  0
   12.4369   -2.3624   14.8707 H   0  0  0  0  0  0  0  0  0  0  0  0
   12.3567    0.1312   15.0701 H   0  0  0  0  0  0  0  0  0  0  0  0
   10.1853    1.2790   15.3850 H   0  0  0  0  0  0  0  0  0  0  0  0
    8.0586   -0.0485   15.4529 H   0  0  0  0  0  0  0  0  0  0  0  0
    5.1572  -10.2847   14.5271 H   0  0  0  0  0  0  0  0  0  0  0  0
    3.7519   -7.7682   14.4063 H   0  0  0  0  0  0  0  0  0  0  0  0
    4.8083   -7.4092   13.1984 H   0  0  0  0  0  0  0  0  0  0  0  0
    3.8050   -8.1237   12.5865 H   0  0  0  0  0  0  0  0  0  0  0  0
    3.0624  -10.6857   14.1462 H   0  0  0  0  0  0  0  0  0  0  0  0
    1.0454  -12.3323   13.9973 H   0  0  0  0  0  0  0  0  0  0  0  0
   -0.2285  -14.4456   13.1550 H   0  0  0  0  0  0  0  0  0  0  0  0
   -1.1267  -13.8512   10.8276 H   0  0  0  0  0  0  0  0  0  0  0  0
  1  2  1  0
  2  3  1  0
  3  4  1  0
  4  5  1  0
  5  6  2  0
  6  7  1  0
  7  8  2  0
  8  9  1  0
  9 10  2  0
 10 11  1  0
 11 12  2  0
 12 13  1  0
  2 14  1  0
 14 15  1  0
 14 16  1  0
 16 17  1  0
 17 18  2  0
 17 19  1  0
 19 20  2  0
 20 21  1  0
 21 22  2  0
 22 23  1  0
 13  5  1  0
 23 19  1  0
 12  7  1  0
  1 24  1  0
  1 25  1  0
  1 26  1  0
  2 27  1  0
  3 28  1  0
  4 29  1  0
  4 30  1  0
  8 31  1  0
  9 32  1  0
 10 33  1  0
 11 34  1  0
 14 35  1  0
 15 36  1  0
 15 37  1  0
 15 38  1  0
 16 39  1  0
 20 40  1  0
 21 41  1  0
 22 42  1  0
M  END
>  <Energy>  (668) 
647.96555353940823

>  <compound_id>  (668) 
11103

>  <target_id>  (668) 
1

>  <reference_id>  (668) 
120

>  <inspiration_ids>  (668) 
[2, 120]

>  <energy_score>  (668) 
544.1032382006626

>  <distance_score>  (668) 
10.296605504343743

>  <path>  (668) 
/opt/xchem-fragalysis-2/maxwin/BulkDock/SCRATCH/511022/C11103-P120/C11103-P120.minimised.mol

>  <scratch_subdir>  (668) 
/opt/xchem-fragalysis-2/maxwin/BulkDock/SCRATCH/511022/C11103-P120

>  <fragmenstein_runtime>  (668) 
15.197840690612793

>  <fragmenstein_outcome>  (668) 
too moved

>  <fragmenstein_mode>  (668) 
expansion

>  <fragmenstein_error>  (668) 


$$$$
C76599-P2
     RDKit          3D

 45 47  0  0  0  0  0  0  0  0999 V2000
    2.5851   -7.1898   16.6459 C   0  0  0  0  0  0  0  0  0  0  0  0
    3.5167   -6.9026   15.2536 C   0  0  0  0  0  0  0  0  0  0  0  0
    3.0335   -5.3407   14.9463 N   0  0  0  0  0  0  0  0  0  0  0  0
    3.1507   -4.4069   16.1183 C   0  0  0  0  0  0  0  0  0  0  0  0
    3.3041   -2.9313   15.8299 C   0  0  0  0  0  0  0  0  0  0  0  0
    3.1170   -2.2160   14.7330 N   0  0  0  0  0  0  0  0  0  0  0  0
    3.3199   -0.9159   15.1441 C   0  0  0  0  0  0  0  0  0  0  0  0
    3.1585    0.3094   14.4823 C   0  0  0  0  0  0  0  0  0  0  0  0
    3.4229    1.4978   15.1953 C   0  0  0  0  0  0  0  0  0  0  0  0
    3.8949    1.4625   16.5142 C   0  0  0  0  0  0  0  0  0  0  0  0
    4.0413    0.2471   17.1935 C   0  0  0  0  0  0  0  0  0  0  0  0
    3.6930   -0.8947   16.4750 C   0  0  0  0  0  0  0  0  0  0  0  0
    3.6286   -2.1744   16.9379 O   0  0  0  0  0  0  0  0  0  0  0  0
    4.1218   -8.3574   13.8628 C   0  0  0  0  0  0  0  0  0  0  0  0
    5.7813   -7.7849   13.6770 C   0  0  0  0  0  0  0  0  0  0  0  0
    3.3979  -10.1398   14.3014 N   0  0  0  0  0  0  0  0  0  0  0  0
    2.1457  -11.1466   13.4647 C   0  0  0  0  0  0  0  0  0  0  0  0
    1.5304  -10.9597   12.3344 O   0  0  0  0  0  0  0  0  0  0  0  0
    1.4925  -12.7396   14.5389 C   0  0  0  0  0  0  0  0  0  0  0  0
    0.4240  -13.3559   13.4931 C   0  0  0  0  0  0  0  0  0  0  0  0
   -0.6943  -14.0758   14.2135 C   0  0  0  0  0  0  0  0  0  0  0  0
   -1.1755  -14.3740   16.0082 C   0  0  0  0  0  0  0  0  0  0  0  0
   -0.0497  -14.3186   16.9378 C   0  0  0  0  0  0  0  0  0  0  0  0
    1.3118  -13.5564   16.3110 C   0  0  0  0  0  0  0  0  0  0  0  0
    2.6101   -8.1894   17.0668 H   0  0  0  0  0  0  0  0  0  0  0  0
    2.9908   -6.5773   17.4637 H   0  0  0  0  0  0  0  0  0  0  0  0
    1.5361   -6.8786   16.5489 H   0  0  0  0  0  0  0  0  0  0  0  0
    4.3360   -6.4793   15.8483 H   0  0  0  0  0  0  0  0  0  0  0  0
    2.0601   -5.3031   14.6526 H   0  0  0  0  0  0  0  0  0  0  0  0
    2.2388   -4.5100   16.7193 H   0  0  0  0  0  0  0  0  0  0  0  0
    3.9826   -4.6938   16.7650 H   0  0  0  0  0  0  0  0  0  0  0  0
    2.8233    0.3325   13.4507 H   0  0  0  0  0  0  0  0  0  0  0  0
    3.2850    2.4568   14.6979 H   0  0  0  0  0  0  0  0  0  0  0  0
    4.1106    2.3959   17.0305 H   0  0  0  0  0  0  0  0  0  0  0  0
    4.3444    0.1931   18.2310 H   0  0  0  0  0  0  0  0  0  0  0  0
    4.8663   -9.1551   13.9981 H   0  0  0  0  0  0  0  0  0  0  0  0
    6.6013   -8.4733   13.7098 H   0  0  0  0  0  0  0  0  0  0  0  0
    6.2029   -7.3111   14.5584 H   0  0  0  0  0  0  0  0  0  0  0  0
    5.9343   -7.2435   12.7381 H   0  0  0  0  0  0  0  0  0  0  0  0
    3.7338  -10.6270   15.1391 H   0  0  0  0  0  0  0  0  0  0  0  0
    0.2716  -12.9913   12.4843 H   0  0  0  0  0  0  0  0  0  0  0  0
   -1.5572  -13.9877   13.7911 H   0  0  0  0  0  0  0  0  0  0  0  0
   -2.1529  -14.8085   16.2046 H   0  0  0  0  0  0  0  0  0  0  0  0
   -0.0350  -14.7530   17.9268 H   0  0  0  0  0  0  0  0  0  0  0  0
    1.9491  -14.3413   16.8055 H   0  0  0  0  0  0  0  0  0  0  0  0
  1  2  1  0
  2  3  1  0
  3  4  1  0
  4  5  1  0
  5  6  2  0
  6  7  1  0
  7  8  2  0
  8  9  1  0
  9 10  2  0
 10 11  1  0
 11 12  2  0
 12 13  1  0
  2 14  1  0
 14 15  1  0
 14 16  1  0
 16 17  1  0
 17 18  2  0
 17 19  1  0
 19 20  2  0
 20 21  1  0
 21 22  2  0
 22 23  1  0
 23 24  2  0
 13  5  1  0
 24 19  1  0
 12  7  1  0
  1 25  1  0
  1 26  1  0
  1 27  1  0
  2 28  1  0
  3 29  1  0
  4 30  1  0
  4 31  1  0
  8 32  1  0
  9 33  1  0
 10 34  1  0
 11 35  1  0
 14 36  1  0
 15 37  1  0
 15 38  1  0
 15 39  1  0
 16 40  1  0
 20 41  1  0
 21 42  1  0
 22 43  1  0
 23 44  1  0
 24 45  1  0
M  END
>  <Energy>  (669) 
774.94394205931246

>  <compound_id>  (669) 
76599

>  <target_id>  (669) 
1

>  <reference_id>  (669) 
2

>  <inspiration_ids>  (669) 
[2, 120]

>  <energy_score>  (669) 
670.8582796268114

>  <distance_score>  (669) 
11.837274618888925

>  <path>  (669) 
/opt/xchem-fragalysis-2/maxwin/BulkDock/SCRATCH/511022/C76599-P2/C76599-P2.minimised.mol

>  <scratch_subdir>  (669) 
/opt/xchem-fragalysis-2/maxwin/BulkDock/SCRATCH/511022/C76599-P2

>  <fragmenstein_runtime>  (669) 
26.41776156425476

>  <fragmenstein_outcome>  (669) 
too moved

>  <fragmenstein_mode>  (669) 
expansion

>  <fragmenstein_error>  (669) 


$$$$
C76599-P120
     RDKit          3D

 45 47  0  0  0  0  0  0  0  0999 V2000
    9.5392  -10.9524   22.5328 C   0  0  0  0  0  0  0  0  0  0  0  0
    9.9091  -10.4879   21.1203 C   0  0  0  0  0  0  0  0  0  0  0  0
   11.2594   -9.7888   21.0860 N   0  0  0  0  0  0  0  0  0  0  0  0
   11.7965   -9.0277   22.2670 C   0  0  0  0  0  0  0  0  0  0  0  0
   12.9516   -8.0030   22.0408 C   0  0  0  0  0  0  0  0  0  0  0  0
   14.0894   -8.0673   21.3586 N   0  0  0  0  0  0  0  0  0  0  0  0
   14.5029   -6.7349   21.2434 C   0  0  0  0  0  0  0  0  0  0  0  0
   15.4844   -6.1126   20.4421 C   0  0  0  0  0  0  0  0  0  0  0  0
   15.5054   -4.7054   20.3624 C   0  0  0  0  0  0  0  0  0  0  0  0
   14.6004   -3.9329   21.0983 C   0  0  0  0  0  0  0  0  0  0  0  0
   13.6595   -4.5361   21.9480 C   0  0  0  0  0  0  0  0  0  0  0  0
   13.6489   -5.9325   21.9736 C   0  0  0  0  0  0  0  0  0  0  0  0
   12.7669   -6.7613   22.6184 O   0  0  0  0  0  0  0  0  0  0  0  0
    9.7885  -11.7735   20.1231 C   0  0  0  0  0  0  0  0  0  0  0  0
   10.1729  -11.4074   18.6852 C   0  0  0  0  0  0  0  0  0  0  0  0
    8.5423  -12.6362   20.0246 N   0  0  0  0  0  0  0  0  0  0  0  0
    7.1625  -12.2886   19.7329 C   0  0  0  0  0  0  0  0  0  0  0  0
    6.6428  -11.2195   19.5752 O   0  0  0  0  0  0  0  0  0  0  0  0
    6.1889  -13.4943   19.4706 C   0  0  0  0  0  0  0  0  0  0  0  0
    6.5848  -14.7172   18.8951 C   0  0  0  0  0  0  0  0  0  0  0  0
    5.6430  -15.7111   18.5111 C   0  0  0  0  0  0  0  0  0  0  0  0
    4.2752  -15.5089   18.6783 C   0  0  0  0  0  0  0  0  0  0  0  0
    3.8493  -14.3055   19.2275 C   0  0  0  0  0  0  0  0  0  0  0  0
    4.7892  -13.3128   19.6011 C   0  0  0  0  0  0  0  0  0  0  0  0
    8.5650  -11.4523   22.5366 H   0  0  0  0  0  0  0  0  0  0  0  0
    9.4621  -10.1111   23.2283 H   0  0  0  0  0  0  0  0  0  0  0  0
   10.2801  -11.6574   22.9249 H   0  0  0  0  0  0  0  0  0  0  0  0
    9.1621   -9.7566   20.7907 H   0  0  0  0  0  0  0  0  0  0  0  0
   11.9810  -10.4665   20.8280 H   0  0  0  0  0  0  0  0  0  0  0  0
   12.1569   -9.7517   23.0071 H   0  0  0  0  0  0  0  0  0  0  0  0
   10.9709   -8.4790   22.7273 H   0  0  0  0  0  0  0  0  0  0  0  0
   16.1523   -6.7179   19.8375 H   0  0  0  0  0  0  0  0  0  0  0  0
   16.2296   -4.2172   19.7140 H   0  0  0  0  0  0  0  0  0  0  0  0
   14.6171   -2.8474   21.0177 H   0  0  0  0  0  0  0  0  0  0  0  0
   12.9320   -3.9508   22.5000 H   0  0  0  0  0  0  0  0  0  0  0  0
   10.5479  -12.4840   20.4785 H   0  0  0  0  0  0  0  0  0  0  0  0
    9.3825  -10.8165   18.2194 H   0  0  0  0  0  0  0  0  0  0  0  0
   11.1368  -10.8978   18.6359 H   0  0  0  0  0  0  0  0  0  0  0  0
   10.2702  -12.3178   18.0807 H   0  0  0  0  0  0  0  0  0  0  0  0
    8.6070  -13.6354   20.1742 H   0  0  0  0  0  0  0  0  0  0  0  0
    7.6364  -14.9128   18.6967 H   0  0  0  0  0  0  0  0  0  0  0  0
    5.9960  -16.6433   18.0729 H   0  0  0  0  0  0  0  0  0  0  0  0
    3.5573  -16.2663   18.3761 H   0  0  0  0  0  0  0  0  0  0  0  0
    2.7858  -14.1172   19.3508 H   0  0  0  0  0  0  0  0  0  0  0  0
    4.4161  -12.3676   19.9961 H   0  0  0  0  0  0  0  0  0  0  0  0
  1  2  1  0
  2  3  1  0
  3  4  1  0
  4  5  1  0
  5  6  2  0
  6  7  1  0
  7  8  2  0
  8  9  1  0
  9 10  2  0
 10 11  1  0
 11 12  2  0
 12 13  1  0
  2 14  1  0
 14 15  1  0
 14 16  1  0
 16 17  1  0
 17 18  2  0
 17 19  1  0
 19 20  2  0
 20 21  1  0
 21 22  2  0
 22 23  1  0
 23 24  2  0
 13  5  1  0
 24 19  1  0
 12  7  1  0
  1 25  1  0
  1 26  1  0
  1 27  1  0
  2 28  1  0
  3 29  1  0
  4 30  1  0
  4 31  1  0
  8 32  1  0
  9 33  1  0
 10 34  1  0
 11 35  1  0
 14 36  1  0
 15 37  1  0
 15 38  1  0
 15 39  1  0
 16 40  1  0
 20 41  1  0
 21 42  1  0
 22 43  1  0
 23 44  1  0
 24 45  1  0
M  END
>  <Energy>  (670) 
112.47728765519958

>  <compound_id>  (670) 
76599

>  <target_id>  (670) 
1

>  <reference_id>  (670) 
120

>  <inspiration_ids>  (670) 
[2, 120]

>  <energy_score>  (670) 
8.391625222695524

>  <distance_score>  (670) 
14.097669935121875

>  <path>  (670) 
/opt/xchem-fragalysis-2/maxwin/BulkDock/SCRATCH/511022/C76599-P120/C76599-P120.minimised.mol

>  <scratch_subdir>  (670) 
/opt/xchem-fragalysis-2/maxwin/BulkDock/SCRATCH/511022/C76599-P120

>  <fragmenstein_runtime>  (670) 
42.866618156433105

>  <fragmenstein_outcome>  (670) 
too moved

>  <fragmenstein_mode>  (670) 
expansion

>  <fragmenstein_error>  (670) 


$$$$
C76600-P2
     RDKit          3D

 42 44  0  0  0  0  0  0  0  0999 V2000
   13.0697   -3.9945   16.5668 C   0  0  0  0  0  0  0  0  0  0  0  0
   12.6192   -2.5433   16.5983 C   0  0  0  0  0  0  0  0  0  0  0  0
   13.6772   -1.6445   17.0715 N   0  0  0  0  0  0  0  0  0  0  0  0
   14.7780   -1.3952   16.1523 C   0  0  0  0  0  0  0  0  0  0  0  0
   14.6272   -0.1385   15.3737 C   0  0  0  0  0  0  0  0  0  0  0  0
   14.5053   -0.0011   14.0676 N   0  0  0  0  0  0  0  0  0  0  0  0
   14.4372    1.3474   13.8900 C   0  0  0  0  0  0  0  0  0  0  0  0
   14.3070    2.1091   12.7260 C   0  0  0  0  0  0  0  0  0  0  0  0
   14.2351    3.5010   12.8615 C   0  0  0  0  0  0  0  0  0  0  0  0
   14.3110    4.1107   14.1212 C   0  0  0  0  0  0  0  0  0  0  0  0
   14.4703    3.3596   15.2916 C   0  0  0  0  0  0  0  0  0  0  0  0
   14.5177    1.9873   15.1146 C   0  0  0  0  0  0  0  0  0  0  0  0
   14.6463    1.0358   16.0795 O   0  0  0  0  0  0  0  0  0  0  0  0
   11.6973   -2.0415   15.4494 C   0  0  0  0  0  0  0  0  0  0  0  0
   12.2331   -2.1849   14.0430 C   0  0  0  0  0  0  0  0  0  0  0  0
   11.2661   -0.6697   15.6731 N   0  0  0  0  0  0  0  0  0  0  0  0
    9.8558   -0.0582   15.7040 C   0  0  0  0  0  0  0  0  0  0  0  0
    8.8097   -0.5675   15.6318 O   0  0  0  0  0  0  0  0  0  0  0  0
    9.9559    1.3792   15.9453 C   0  0  0  0  0  0  0  0  0  0  0  0
    8.9855    2.3168   16.2520 C   0  0  0  0  0  0  0  0  0  0  0  0
    9.6417    3.5558   16.4159 C   0  0  0  0  0  0  0  0  0  0  0  0
   10.9766    3.3022   16.2208 C   0  0  0  0  0  0  0  0  0  0  0  0
   11.1806    1.9930   15.9237 O   0  0  0  0  0  0  0  0  0  0  0  0
   13.3536   -4.3253   17.5738 H   0  0  0  0  0  0  0  0  0  0  0  0
   12.2519   -4.6407   16.2450 H   0  0  0  0  0  0  0  0  0  0  0  0
   13.9444   -4.1498   15.9400 H   0  0  0  0  0  0  0  0  0  0  0  0
   11.9603   -2.5409   17.4508 H   0  0  0  0  0  0  0  0  0  0  0  0
   14.0620   -2.0263   17.9367 H   0  0  0  0  0  0  0  0  0  0  0  0
   15.6904   -1.2813   16.7526 H   0  0  0  0  0  0  0  0  0  0  0  0
   14.9829   -2.2413   15.4897 H   0  0  0  0  0  0  0  0  0  0  0  0
   14.2510    1.6299   11.7555 H   0  0  0  0  0  0  0  0  0  0  0  0
   14.1261    4.1191   11.9724 H   0  0  0  0  0  0  0  0  0  0  0  0
   14.2601    5.1962   14.1912 H   0  0  0  0  0  0  0  0  0  0  0  0
   14.5425    3.8129   16.2720 H   0  0  0  0  0  0  0  0  0  0  0  0
   10.7755   -2.6320   15.4850 H   0  0  0  0  0  0  0  0  0  0  0  0
   13.3193   -2.2104   13.9925 H   0  0  0  0  0  0  0  0  0  0  0  0
   11.8796   -3.1265   13.6103 H   0  0  0  0  0  0  0  0  0  0  0  0
   11.8939   -1.3774   13.3881 H   0  0  0  0  0  0  0  0  0  0  0  0
   11.9568    0.0600   15.8441 H   0  0  0  0  0  0  0  0  0  0  0  0
    7.9285    2.1147   16.3588 H   0  0  0  0  0  0  0  0  0  0  0  0
    9.2045    4.5097   16.6759 H   0  0  0  0  0  0  0  0  0  0  0  0
   11.8612    3.9190   16.2706 H   0  0  0  0  0  0  0  0  0  0  0  0
  1  2  1  0
  2  3  1  0
  3  4  1  0
  4  5  1  0
  5  6  2  0
  6  7  1  0
  7  8  2  0
  8  9  1  0
  9 10  2  0
 10 11  1  0
 11 12  2  0
 12 13  1  0
  2 14  1  0
 14 15  1  0
 14 16  1  0
 16 17  1  0
 17 18  2  0
 17 19  1  0
 19 20  2  0
 20 21  1  0
 21 22  2  0
 22 23  1  0
 13  5  1  0
 23 19  1  0
 12  7  1  0
  1 24  1  0
  1 25  1  0
  1 26  1  0
  2 27  1  0
  3 28  1  0
  4 29  1  0
  4 30  1  0
  8 31  1  0
  9 32  1  0
 10 33  1  0
 11 34  1  0
 14 35  1  0
 15 36  1  0
 15 37  1  0
 15 38  1  0
 16 39  1  0
 20 40  1  0
 21 41  1  0
 22 42  1  0
M  END
>  <Energy>  (671) 
84.015985109722791

>  <compound_id>  (671) 
76600

>  <target_id>  (671) 
1

>  <reference_id>  (671) 
2

>  <inspiration_ids>  (671) 
[2, 120]

>  <energy_score>  (671) 
-22.203014234460284

>  <distance_score>  (671) 
1.1832775322100888

>  <path>  (671) 
/opt/xchem-fragalysis-2/maxwin/BulkDock/SCRATCH/511022/C76600-P2/C76600-P2.minimised.mol

>  <scratch_subdir>  (671) 
/opt/xchem-fragalysis-2/maxwin/BulkDock/SCRATCH/511022/C76600-P2

>  <fragmenstein_runtime>  (671) 
6.187150001525879

>  <fragmenstein_outcome>  (671) 
too moved

>  <fragmenstein_mode>  (671) 
expansion

>  <fragmenstein_error>  (671) 


$$$$
C76600-P120
     RDKit          3D

 42 44  0  0  0  0  0  0  0  0999 V2000
   16.0196   -3.5186   17.0512 C   0  0  0  0  0  0  0  0  0  0  0  0
   14.7572   -3.0922   16.2771 C   0  0  0  0  0  0  0  0  0  0  0  0
   14.8685   -1.6454   16.0680 N   0  0  0  0  0  0  0  0  0  0  0  0
   14.6156   -1.3391   14.6656 C   0  0  0  0  0  0  0  0  0  0  0  0
   14.4875    0.1111   14.4209 C   0  0  0  0  0  0  0  0  0  0  0  0
   14.7517    0.7343   13.2931 N   0  0  0  0  0  0  0  0  0  0  0  0
   14.4291    2.0239   13.5651 C   0  0  0  0  0  0  0  0  0  0  0  0
   14.4943    3.1555   12.7546 C   0  0  0  0  0  0  0  0  0  0  0  0
   14.0475    4.3630   13.3001 C   0  0  0  0  0  0  0  0  0  0  0  0
   13.5683    4.4356   14.6169 C   0  0  0  0  0  0  0  0  0  0  0  0
   13.5164    3.3099   15.4455 C   0  0  0  0  0  0  0  0  0  0  0  0
   13.9562    2.1359   14.8614 C   0  0  0  0  0  0  0  0  0  0  0  0
   13.9916    0.8993   15.4250 O   0  0  0  0  0  0  0  0  0  0  0  0
   13.3850   -3.3942   16.9369 C   0  0  0  0  0  0  0  0  0  0  0  0
   13.5540   -3.2866   18.4255 C   0  0  0  0  0  0  0  0  0  0  0  0
   12.3701   -2.4409   16.4964 N   0  0  0  0  0  0  0  0  0  0  0  0
   11.4502   -2.4594   15.2662 C   0  0  0  0  0  0  0  0  0  0  0  0
   11.2999   -3.2741   14.4491 O   0  0  0  0  0  0  0  0  0  0  0  0
   10.7966   -1.1566   15.1948 C   0  0  0  0  0  0  0  0  0  0  0  0
   11.0448   -0.0799   14.3649 C   0  0  0  0  0  0  0  0  0  0  0  0
   10.2728    0.9965   14.8505 C   0  0  0  0  0  0  0  0  0  0  0  0
    9.5083    0.4878   15.8722 C   0  0  0  0  0  0  0  0  0  0  0  0
    9.8335   -0.8116   16.1066 O   0  0  0  0  0  0  0  0  0  0  0  0
   16.1769   -2.9212   17.9569 H   0  0  0  0  0  0  0  0  0  0  0  0
   15.9909   -4.5665   17.3468 H   0  0  0  0  0  0  0  0  0  0  0  0
   16.9101   -3.3861   16.4243 H   0  0  0  0  0  0  0  0  0  0  0  0
   14.8308   -3.6179   15.3316 H   0  0  0  0  0  0  0  0  0  0  0  0
   15.7983   -1.2990   16.3014 H   0  0  0  0  0  0  0  0  0  0  0  0
   15.4541   -1.7134   14.0634 H   0  0  0  0  0  0  0  0  0  0  0  0
   13.7214   -1.8267   14.2735 H   0  0  0  0  0  0  0  0  0  0  0  0
   14.8669    3.0939   11.7388 H   0  0  0  0  0  0  0  0  0  0  0  0
   14.0810    5.2666   12.6939 H   0  0  0  0  0  0  0  0  0  0  0  0
   13.2368    5.3960   15.0101 H   0  0  0  0  0  0  0  0  0  0  0  0
   13.1528    3.3480   16.4650 H   0  0  0  0  0  0  0  0  0  0  0  0
   13.0401   -4.3899   16.6463 H   0  0  0  0  0  0  0  0  0  0  0  0
   13.9390   -2.3079   18.7321 H   0  0  0  0  0  0  0  0  0  0  0  0
   12.6434   -3.4753   18.9694 H   0  0  0  0  0  0  0  0  0  0  0  0
   14.2493   -4.0414   18.8082 H   0  0  0  0  0  0  0  0  0  0  0  0
   12.3096   -1.5371   16.9500 H   0  0  0  0  0  0  0  0  0  0  0  0
   11.7507   -0.0706   13.5474 H   0  0  0  0  0  0  0  0  0  0  0  0
   10.2637    2.0147   14.4898 H   0  0  0  0  0  0  0  0  0  0  0  0
    8.7488    0.9102   16.5188 H   0  0  0  0  0  0  0  0  0  0  0  0
  1  2  1  0
  2  3  1  0
  3  4  1  0
  4  5  1  0
  5  6  2  0
  6  7  1  0
  7  8  2  0
  8  9  1  0
  9 10  2  0
 10 11  1  0
 11 12  2  0
 12 13  1  0
  2 14  1  0
 14 15  1  0
 14 16  1  0
 16 17  1  0
 17 18  2  0
 17 19  1  0
 19 20  2  0
 20 21  1  0
 21 22  2  0
 22 23  1  0
 13  5  1  0
 23 19  1  0
 12  7  1  0
  1 24  1  0
  1 25  1  0
  1 26  1  0
  2 27  1  0
  3 28  1  0
  4 29  1  0
  4 30  1  0
  8 31  1  0
  9 32  1  0
 10 33  1  0
 11 34  1  0
 14 35  1  0
 15 36  1  0
 15 37  1  0
 15 38  1  0
 16 39  1  0
 20 40  1  0
 21 41  1  0
 22 42  1  0
M  END
>  <Energy>  (672) 
92.527955143715687

>  <compound_id>  (672) 
76600

>  <target_id>  (672) 
1

>  <reference_id>  (672) 
120

>  <inspiration_ids>  (672) 
[2, 120]

>  <energy_score>  (672) 
-13.6910442004679

>  <distance_score>  (672) 
2.1494818403888876

>  <path>  (672) 
/opt/xchem-fragalysis-2/maxwin/BulkDock/SCRATCH/511022/C76600-P120/C76600-P120.minimised.mol

>  <scratch_subdir>  (672) 
/opt/xchem-fragalysis-2/maxwin/BulkDock/SCRATCH/511022/C76600-P120

>  <fragmenstein_runtime>  (672) 
4.5407395362854

>  <fragmenstein_outcome>  (672) 
too moved

>  <fragmenstein_mode>  (672) 
expansion

>  <fragmenstein_error>  (672) 


$$$$
C76601-P2
     RDKit          3D

 42 44  0  0  0  0  0  0  0  0999 V2000
   16.1323   -3.4037   18.5736 C   0  0  0  0  0  0  0  0  0  0  0  0
   15.1474   -3.0097   17.4655 C   0  0  0  0  0  0  0  0  0  0  0  0
   15.9288   -2.3634   16.4016 N   0  0  0  0  0  0  0  0  0  0  0  0
   15.2797   -2.1197   15.1112 C   0  0  0  0  0  0  0  0  0  0  0  0
   15.1525   -0.6854   14.6876 C   0  0  0  0  0  0  0  0  0  0  0  0
   15.0847   -0.2177   13.4545 N   0  0  0  0  0  0  0  0  0  0  0  0
   14.8460    1.1158   13.6165 C   0  0  0  0  0  0  0  0  0  0  0  0
   14.6300    2.1254   12.6732 C   0  0  0  0  0  0  0  0  0  0  0  0
   14.3117    3.4030   13.1503 C   0  0  0  0  0  0  0  0  0  0  0  0
   14.2305    3.6531   14.5236 C   0  0  0  0  0  0  0  0  0  0  0  0
   13.9144    4.8896   14.9329 F   0  0  0  0  0  0  0  0  0  0  0  0
   14.4734    2.6687   15.4814 C   0  0  0  0  0  0  0  0  0  0  0  0
   14.7797    1.4196   14.9648 C   0  0  0  0  0  0  0  0  0  0  0  0
   15.0299    0.2726   15.6564 O   0  0  0  0  0  0  0  0  0  0  0  0
   13.9878   -2.1560   18.0522 C   0  0  0  0  0  0  0  0  0  0  0  0
   14.4124   -0.7762   18.5129 C   0  0  0  0  0  0  0  0  0  0  0  0
   13.0392   -2.1339   16.9916 N   0  0  0  0  0  0  0  0  0  0  0  0
   12.2852   -0.9661   16.3575 C   0  0  0  0  0  0  0  0  0  0  0  0
   12.2564    0.1573   16.6467 O   0  0  0  0  0  0  0  0  0  0  0  0
   11.6459   -1.5104   15.2011 C   0  0  0  0  0  0  0  0  0  0  0  0
   11.2195   -2.8390   14.9499 C   0  0  0  0  0  0  0  0  0  0  0  0
   11.5668   -3.0587   13.6483 C   0  0  0  0  0  0  0  0  0  0  0  0
   12.0096   -1.9215   13.0693 O   0  0  0  0  0  0  0  0  0  0  0  0
   11.8838   -0.9319   13.9793 C   0  0  0  0  0  0  0  0  0  0  0  0
   16.6428   -2.5331   18.9993 H   0  0  0  0  0  0  0  0  0  0  0  0
   16.8998   -4.0847   18.1879 H   0  0  0  0  0  0  0  0  0  0  0  0
   15.6124   -3.9229   19.3861 H   0  0  0  0  0  0  0  0  0  0  0  0
   14.7442   -3.9517   17.0667 H   0  0  0  0  0  0  0  0  0  0  0  0
   16.3570   -1.4983   16.7303 H   0  0  0  0  0  0  0  0  0  0  0  0
   14.3261   -2.6292   15.0115 H   0  0  0  0  0  0  0  0  0  0  0  0
   15.9242   -2.5972   14.3618 H   0  0  0  0  0  0  0  0  0  0  0  0
   14.6785    1.9118   11.6116 H   0  0  0  0  0  0  0  0  0  0  0  0
   14.1201    4.2141   12.4530 H   0  0  0  0  0  0  0  0  0  0  0  0
   14.4024    2.8594   16.5431 H   0  0  0  0  0  0  0  0  0  0  0  0
   13.5350   -2.7190   18.8750 H   0  0  0  0  0  0  0  0  0  0  0  0
   13.5908   -0.0806   18.6780 H   0  0  0  0  0  0  0  0  0  0  0  0
   14.9339   -0.8645   19.4737 H   0  0  0  0  0  0  0  0  0  0  0  0
   15.1123   -0.2750   17.8499 H   0  0  0  0  0  0  0  0  0  0  0  0
   12.7730   -2.9934   16.5361 H   0  0  0  0  0  0  0  0  0  0  0  0
   10.9565   -3.6238   15.6407 H   0  0  0  0  0  0  0  0  0  0  0  0
   11.5503   -3.9243   13.0082 H   0  0  0  0  0  0  0  0  0  0  0  0
   12.2263    0.0399   13.6579 H   0  0  0  0  0  0  0  0  0  0  0  0
  1  2  1  0
  2  3  1  0
  3  4  1  0
  4  5  1  0
  5  6  2  0
  6  7  1  0
  7  8  2  0
  8  9  1  0
  9 10  2  0
 10 11  1  0
 10 12  1  0
 12 13  2  0
 13 14  1  0
  2 15  1  0
 15 16  1  0
 15 17  1  0
 17 18  1  0
 18 19  2  0
 18 20  1  0
 20 21  1  0
 21 22  2  0
 22 23  1  0
 23 24  1  0
 14  5  1  0
 24 20  2  0
 13  7  1  0
  1 25  1  0
  1 26  1  0
  1 27  1  0
  2 28  1  0
  3 29  1  0
  4 30  1  0
  4 31  1  0
  8 32  1  0
  9 33  1  0
 12 34  1  0
 15 35  1  0
 16 36  1  0
 16 37  1  0
 16 38  1  0
 17 39  1  0
 21 40  1  0
 22 41  1  0
 24 42  1  0
M  END
>  <Energy>  (673) 
83.533068915080435

>  <compound_id>  (673) 
76601

>  <target_id>  (673) 
1

>  <reference_id>  (673) 
2

>  <inspiration_ids>  (673) 
[2, 120]

>  <energy_score>  (673) 
7.714264930511291

>  <distance_score>  (673) 
2.3557600322338317

>  <path>  (673) 
/opt/xchem-fragalysis-2/maxwin/BulkDock/SCRATCH/511022/C76601-P2/C76601-P2.minimised.mol

>  <scratch_subdir>  (673) 
/opt/xchem-fragalysis-2/maxwin/BulkDock/SCRATCH/511022/C76601-P2

>  <fragmenstein_runtime>  (673) 
5.0756871700286865

>  <fragmenstein_outcome>  (673) 
too moved

>  <fragmenstein_mode>  (673) 
expansion

>  <fragmenstein_error>  (673) 


$$$$
C76601-P120
     RDKit          3D

 42 44  0  0  0  0  0  0  0  0999 V2000
   13.7363   -3.2993   17.6121 C   0  0  0  0  0  0  0  0  0  0  0  0
   13.8335   -1.8752   17.0343 C   0  0  0  0  0  0  0  0  0  0  0  0
   14.3188   -0.9748   18.0630 N   0  0  0  0  0  0  0  0  0  0  0  0
   15.5126   -0.2504   17.5979 C   0  0  0  0  0  0  0  0  0  0  0  0
   15.3267    0.6693   16.4402 C   0  0  0  0  0  0  0  0  0  0  0  0
   15.6389    0.4675   15.1734 N   0  0  0  0  0  0  0  0  0  0  0  0
   15.1777    1.5923   14.5433 C   0  0  0  0  0  0  0  0  0  0  0  0
   15.1536    1.9494   13.1887 C   0  0  0  0  0  0  0  0  0  0  0  0
   14.5261    3.1536   12.8421 C   0  0  0  0  0  0  0  0  0  0  0  0
   13.9689    3.9759   13.8250 C   0  0  0  0  0  0  0  0  0  0  0  0
   13.3730    5.1160   13.4475 F   0  0  0  0  0  0  0  0  0  0  0  0
   14.0119    3.6596   15.1813 C   0  0  0  0  0  0  0  0  0  0  0  0
   14.6275    2.4565   15.4779 C   0  0  0  0  0  0  0  0  0  0  0  0
   14.7606    1.8879   16.7087 O   0  0  0  0  0  0  0  0  0  0  0  0
   12.4825   -1.4015   16.4531 C   0  0  0  0  0  0  0  0  0  0  0  0
   12.1901    0.0686   16.2507 C   0  0  0  0  0  0  0  0  0  0  0  0
   12.4743   -2.0319   15.2088 N   0  0  0  0  0  0  0  0  0  0  0  0
   12.9097   -1.5305   13.8486 C   0  0  0  0  0  0  0  0  0  0  0  0
   13.2767   -0.4853   13.5154 O   0  0  0  0  0  0  0  0  0  0  0  0
   12.8717   -2.6632   13.0361 C   0  0  0  0  0  0  0  0  0  0  0  0
   11.8750   -3.7203   13.0561 C   0  0  0  0  0  0  0  0  0  0  0  0
   12.2967   -4.6727   12.1219 C   0  0  0  0  0  0  0  0  0  0  0  0
   13.5928   -4.2330   11.6352 O   0  0  0  0  0  0  0  0  0  0  0  0
   13.9173   -3.0169   12.2099 C   0  0  0  0  0  0  0  0  0  0  0  0
   13.0754   -3.3485   18.4811 H   0  0  0  0  0  0  0  0  0  0  0  0
   14.7246   -3.6527   17.9285 H   0  0  0  0  0  0  0  0  0  0  0  0
   13.3598   -4.0048   16.8653 H   0  0  0  0  0  0  0  0  0  0  0  0
   14.5769   -1.9619   16.2274 H   0  0  0  0  0  0  0  0  0  0  0  0
   14.5878   -1.4925   18.9000 H   0  0  0  0  0  0  0  0  0  0  0  0
   16.3164   -0.9627   17.3713 H   0  0  0  0  0  0  0  0  0  0  0  0
   15.8788    0.3480   18.4413 H   0  0  0  0  0  0  0  0  0  0  0  0
   15.5618    1.2837   12.4376 H   0  0  0  0  0  0  0  0  0  0  0  0
   14.4609    3.4519   11.7997 H   0  0  0  0  0  0  0  0  0  0  0  0
   13.5769    4.2950   15.9395 H   0  0  0  0  0  0  0  0  0  0  0  0
   11.6738   -1.8602   16.9995 H   0  0  0  0  0  0  0  0  0  0  0  0
   12.5025    0.6688   17.1032 H   0  0  0  0  0  0  0  0  0  0  0  0
   12.6764    0.5230   15.3950 H   0  0  0  0  0  0  0  0  0  0  0  0
   11.1169    0.2177   16.0811 H   0  0  0  0  0  0  0  0  0  0  0  0
   12.2934   -3.0244   15.1595 H   0  0  0  0  0  0  0  0  0  0  0  0
   10.9874   -3.7280   13.6607 H   0  0  0  0  0  0  0  0  0  0  0  0
   11.9689   -5.5854   11.6527 H   0  0  0  0  0  0  0  0  0  0  0  0
   14.8720   -2.5924   11.9335 H   0  0  0  0  0  0  0  0  0  0  0  0
  1  2  1  0
  2  3  1  0
  3  4  1  0
  4  5  1  0
  5  6  2  0
  6  7  1  0
  7  8  2  0
  8  9  1  0
  9 10  2  0
 10 11  1  0
 10 12  1  0
 12 13  2  0
 13 14  1  0
  2 15  1  0
 15 16  1  0
 15 17  1  0
 17 18  1  0
 18 19  2  0
 18 20  1  0
 20 21  1  0
 21 22  2  0
 22 23  1  0
 23 24  1  0
 14  5  1  0
 24 20  2  0
 13  7  1  0
  1 25  1  0
  1 26  1  0
  1 27  1  0
  2 28  1  0
  3 29  1  0
  4 30  1  0
  4 31  1  0
  8 32  1  0
  9 33  1  0
 12 34  1  0
 15 35  1  0
 16 36  1  0
 16 37  1  0
 16 38  1  0
 17 39  1  0
 21 40  1  0
 22 41  1  0
 24 42  1  0
M  END
>  <Energy>  (674) 
80.924961232935331

>  <compound_id>  (674) 
76601

>  <target_id>  (674) 
1

>  <reference_id>  (674) 
120

>  <inspiration_ids>  (674) 
[2, 120]

>  <energy_score>  (674) 
5.106157248360688

>  <distance_score>  (674) 
1.8419257744500803

>  <path>  (674) 
/opt/xchem-fragalysis-2/maxwin/BulkDock/SCRATCH/511022/C76601-P120/C76601-P120.minimised.mol

>  <scratch_subdir>  (674) 
/opt/xchem-fragalysis-2/maxwin/BulkDock/SCRATCH/511022/C76601-P120

>  <fragmenstein_runtime>  (674) 
4.88881516456604

>  <fragmenstein_outcome>  (674) 
too moved

>  <fragmenstein_mode>  (674) 
expansion

>  <fragmenstein_error>  (674) 


$$$$
C76602-P2
     RDKit          3D

 45 47  0  0  0  0  0  0  0  0999 V2000
    3.6453   -6.7715   15.1059 C   0  0  0  0  0  0  0  0  0  0  0  0
    4.6256   -7.9303   13.8364 C   0  0  0  0  0  0  0  0  0  0  0  0
    6.4181   -7.5433   14.4945 N   0  0  0  0  0  0  0  0  0  0  0  0
    7.4918   -6.1511   15.4675 C   0  0  0  0  0  0  0  0  0  0  0  0
    8.5343   -4.3168   15.2512 C   0  0  0  0  0  0  0  0  0  0  0  0
    8.0021   -3.0420   15.1148 N   0  0  0  0  0  0  0  0  0  0  0  0
    9.0784   -2.1157   15.0345 C   0  0  0  0  0  0  0  0  0  0  0  0
    9.1150   -0.7141   15.1576 C   0  0  0  0  0  0  0  0  0  0  0  0
   10.3494   -0.0437   15.1100 C   0  0  0  0  0  0  0  0  0  0  0  0
   11.5315   -0.7655   14.9710 C   0  0  0  0  0  0  0  0  0  0  0  0
   12.6963   -0.1035   14.9439 F   0  0  0  0  0  0  0  0  0  0  0  0
   11.5418   -2.1580   14.8954 C   0  0  0  0  0  0  0  0  0  0  0  0
   10.2931   -2.7781   14.9399 C   0  0  0  0  0  0  0  0  0  0  0  0
   10.0435   -4.1249   14.9528 O   0  0  0  0  0  0  0  0  0  0  0  0
    3.9400   -9.6365   12.9468 C   0  0  0  0  0  0  0  0  0  0  0  0
    3.3949   -8.7649   11.3665 C   0  0  0  0  0  0  0  0  0  0  0  0
    2.5372  -10.9027   12.3649 N   0  0  0  0  0  0  0  0  0  0  0  0
    2.4628  -12.0077   11.0122 C   0  0  0  0  0  0  0  0  0  0  0  0
    3.2393  -12.1370   10.0848 O   0  0  0  0  0  0  0  0  0  0  0  0
    0.9784  -13.3150   11.1617 C   0  0  0  0  0  0  0  0  0  0  0  0
    1.0961  -15.0306   10.6460 C   0  0  0  0  0  0  0  0  0  0  0  0
    0.3557  -16.2122   10.5069 C   0  0  0  0  0  0  0  0  0  0  0  0
   -0.9114  -15.9295   10.6854 C   0  0  0  0  0  0  0  0  0  0  0  0
   -1.1045  -14.6867   11.3205 C   0  0  0  0  0  0  0  0  0  0  0  0
   -0.1679  -13.4402   11.7602 C   0  0  0  0  0  0  0  0  0  0  0  0
    3.0539   -7.3416   15.8435 H   0  0  0  0  0  0  0  0  0  0  0  0
    3.1961   -5.8375   14.7271 H   0  0  0  0  0  0  0  0  0  0  0  0
    4.2533   -6.3212   15.9234 H   0  0  0  0  0  0  0  0  0  0  0  0
    4.6117   -7.3974   12.9123 H   0  0  0  0  0  0  0  0  0  0  0  0
    7.1023   -8.1233   13.9801 H   0  0  0  0  0  0  0  0  0  0  0  0
    8.2949   -6.8088   15.1204 H   0  0  0  0  0  0  0  0  0  0  0  0
    6.9366   -6.1290   16.4076 H   0  0  0  0  0  0  0  0  0  0  0  0
    8.1893   -0.1787   15.2799 H   0  0  0  0  0  0  0  0  0  0  0  0
   10.3868    1.0391   15.1703 H   0  0  0  0  0  0  0  0  0  0  0  0
   12.4595   -2.7203   14.8174 H   0  0  0  0  0  0  0  0  0  0  0  0
    4.6756  -10.4258   13.2262 H   0  0  0  0  0  0  0  0  0  0  0  0
    3.1424   -7.6966   11.5361 H   0  0  0  0  0  0  0  0  0  0  0  0
    4.0574   -8.8002   10.4537 H   0  0  0  0  0  0  0  0  0  0  0  0
    2.6168   -9.4825   10.9982 H   0  0  0  0  0  0  0  0  0  0  0  0
    1.7337  -10.9820   12.8970 H   0  0  0  0  0  0  0  0  0  0  0  0
    2.0280  -15.2850   10.0505 H   0  0  0  0  0  0  0  0  0  0  0  0
    0.7430  -17.1209   10.0722 H   0  0  0  0  0  0  0  0  0  0  0  0
   -1.7135  -16.6026   10.4156 H   0  0  0  0  0  0  0  0  0  0  0  0
   -2.1926  -14.6627   11.4587 H   0  0  0  0  0  0  0  0  0  0  0  0
   -0.4063  -12.5841   12.3687 H   0  0  0  0  0  0  0  0  0  0  0  0
  1  2  1  0
  2  3  1  0
  3  4  1  0
  4  5  1  0
  5  6  2  0
  6  7  1  0
  7  8  2  0
  8  9  1  0
  9 10  2  0
 10 11  1  0
 10 12  1  0
 12 13  2  0
 13 14  1  0
  2 15  1  0
 15 16  1  0
 15 17  1  0
 17 18  1  0
 18 19  2  0
 18 20  1  0
 20 21  2  0
 21 22  1  0
 22 23  2  0
 23 24  1  0
 24 25  2  0
 14  5  1  0
 25 20  1  0
 13  7  1  0
  1 26  1  0
  1 27  1  0
  1 28  1  0
  2 29  1  0
  3 30  1  0
  4 31  1  0
  4 32  1  0
  8 33  1  0
  9 34  1  0
 12 35  1  0
 15 36  1  0
 16 37  1  0
 16 38  1  0
 16 39  1  0
 17 40  1  0
 21 41  1  0
 22 42  1  0
 23 43  1  0
 24 44  1  0
 25 45  1  0
M  END
>  <Energy>  (675) 
908.8777500436745

>  <compound_id>  (675) 
76602

>  <target_id>  (675) 
1

>  <reference_id>  (675) 
2

>  <inspiration_ids>  (675) 
[2, 120]

>  <energy_score>  (675) 
812.2310721176541

>  <distance_score>  (675) 
9.179084394614149

>  <path>  (675) 
/opt/xchem-fragalysis-2/maxwin/BulkDock/SCRATCH/511022/C76602-P2/C76602-P2.minimised.mol

>  <scratch_subdir>  (675) 
/opt/xchem-fragalysis-2/maxwin/BulkDock/SCRATCH/511022/C76602-P2

>  <fragmenstein_runtime>  (675) 
24.30679941177368

>  <fragmenstein_outcome>  (675) 
too moved

>  <fragmenstein_mode>  (675) 
expansion

>  <fragmenstein_error>  (675) 


$$$$
C76602-P120
     RDKit          3D

 45 47  0  0  0  0  0  0  0  0999 V2000
    6.4843   -7.6297   13.0471 C   0  0  0  0  0  0  0  0  0  0  0  0
    5.2800   -7.8154   13.9137 C   0  0  0  0  0  0  0  0  0  0  0  0
    6.1099   -6.5007   15.3299 N   0  0  0  0  0  0  0  0  0  0  0  0
    6.3259   -4.4029   15.4301 C   0  0  0  0  0  0  0  0  0  0  0  0
    7.5147   -2.9592   15.0384 C   0  0  0  0  0  0  0  0  0  0  0  0
    8.8191   -3.0928   14.8178 N   0  0  0  0  0  0  0  0  0  0  0  0
    9.4215   -1.8870   15.0510 C   0  0  0  0  0  0  0  0  0  0  0  0
   10.7803   -1.5096   14.9853 C   0  0  0  0  0  0  0  0  0  0  0  0
   11.1201   -0.1870   15.2742 C   0  0  0  0  0  0  0  0  0  0  0  0
   10.1313    0.6928   15.6924 C   0  0  0  0  0  0  0  0  0  0  0  0
   10.4710    1.9473   16.0175 F   0  0  0  0  0  0  0  0  0  0  0  0
    8.7948    0.3034   15.8422 C   0  0  0  0  0  0  0  0  0  0  0  0
    8.4522   -0.9875   15.4418 C   0  0  0  0  0  0  0  0  0  0  0  0
    7.2168   -1.6508   15.4336 O   0  0  0  0  0  0  0  0  0  0  0  0
    4.0091   -9.4727   13.3608 C   0  0  0  0  0  0  0  0  0  0  0  0
    3.6434   -8.0390   11.9380 C   0  0  0  0  0  0  0  0  0  0  0  0
    2.6291  -10.7970   12.4432 N   0  0  0  0  0  0  0  0  0  0  0  0
    1.1920  -11.9313   13.1913 C   0  0  0  0  0  0  0  0  0  0  0  0
    1.1336  -11.9423   14.3410 O   0  0  0  0  0  0  0  0  0  0  0  0
   -0.0721  -13.2164   12.4954 C   0  0  0  0  0  0  0  0  0  0  0  0
   -1.1592  -13.7141   13.7613 C   0  0  0  0  0  0  0  0  0  0  0  0
   -3.1052  -14.1855   13.6244 C   0  0  0  0  0  0  0  0  0  0  0  0
   -3.5618  -14.7204   12.1624 C   0  0  0  0  0  0  0  0  0  0  0  0
   -2.2136  -14.8776   11.1195 C   0  0  0  0  0  0  0  0  0  0  0  0
   -0.5779  -14.2238   11.4402 C   0  0  0  0  0  0  0  0  0  0  0  0
    7.1368   -7.7997   13.8608 H   0  0  0  0  0  0  0  0  0  0  0  0
    6.3041   -6.7914   12.4049 H   0  0  0  0  0  0  0  0  0  0  0  0
    7.1821   -8.1368   12.3838 H   0  0  0  0  0  0  0  0  0  0  0  0
    4.3093   -7.3530   14.0246 H   0  0  0  0  0  0  0  0  0  0  0  0
    7.0498   -6.8916   15.5535 H   0  0  0  0  0  0  0  0  0  0  0  0
    5.3370   -3.7989   15.6357 H   0  0  0  0  0  0  0  0  0  0  0  0
    7.3281   -5.0716   15.9698 H   0  0  0  0  0  0  0  0  0  0  0  0
   11.5212   -2.2316   14.6604 H   0  0  0  0  0  0  0  0  0  0  0  0
   12.1480    0.1502   15.1891 H   0  0  0  0  0  0  0  0  0  0  0  0
    8.0789    1.0067   16.2274 H   0  0  0  0  0  0  0  0  0  0  0  0
    4.7699  -10.2695   13.4300 H   0  0  0  0  0  0  0  0  0  0  0  0
    3.8844   -8.3719   10.9226 H   0  0  0  0  0  0  0  0  0  0  0  0
    4.0969   -7.0470   12.1262 H   0  0  0  0  0  0  0  0  0  0  0  0
    2.6495   -7.6455   11.6355 H   0  0  0  0  0  0  0  0  0  0  0  0
    2.5429  -10.7886   11.4356 H   0  0  0  0  0  0  0  0  0  0  0  0
   -0.9734  -12.6537   13.9528 H   0  0  0  0  0  0  0  0  0  0  0  0
   -3.5972  -14.6820   14.4857 H   0  0  0  0  0  0  0  0  0  0  0  0
   -4.5337  -15.1629   12.0649 H   0  0  0  0  0  0  0  0  0  0  0  0
   -2.3077  -15.5744   10.2858 H   0  0  0  0  0  0  0  0  0  0  0  0
    0.1710  -14.8632   10.9744 H   0  0  0  0  0  0  0  0  0  0  0  0
  1  2  1  0
  2  3  1  0
  3  4  1  0
  4  5  1  0
  5  6  2  0
  6  7  1  0
  7  8  2  0
  8  9  1  0
  9 10  2  0
 10 11  1  0
 10 12  1  0
 12 13  2  0
 13 14  1  0
  2 15  1  0
 15 16  1  0
 15 17  1  0
 17 18  1  0
 18 19  2  0
 18 20  1  0
 20 21  2  0
 21 22  1  0
 22 23  2  0
 23 24  1  0
 24 25  2  0
 14  5  1  0
 25 20  1  0
 13  7  1  0
  1 26  1  0
  1 27  1  0
  1 28  1  0
  2 29  1  0
  3 30  1  0
  4 31  1  0
  4 32  1  0
  8 33  1  0
  9 34  1  0
 12 35  1  0
 15 36  1  0
 16 37  1  0
 16 38  1  0
 16 39  1  0
 17 40  1  0
 21 41  1  0
 22 42  1  0
 23 43  1  0
 24 44  1  0
 25 45  1  0
M  END
>  <Energy>  (676) 
1431.6260932483544

>  <compound_id>  (676) 
76602

>  <target_id>  (676) 
1

>  <reference_id>  (676) 
120

>  <inspiration_ids>  (676) 
[2, 120]

>  <energy_score>  (676) 
1334.9794153223315

>  <distance_score>  (676) 
8.75465961496692

>  <path>  (676) 
/opt/xchem-fragalysis-2/maxwin/BulkDock/SCRATCH/511022/C76602-P120/C76602-P120.minimised.mol

>  <scratch_subdir>  (676) 
/opt/xchem-fragalysis-2/maxwin/BulkDock/SCRATCH/511022/C76602-P120

>  <fragmenstein_runtime>  (676) 
40.86916160583496

>  <fragmenstein_outcome>  (676) 
too moved

>  <fragmenstein_mode>  (676) 
expansion

>  <fragmenstein_error>  (676) 


$$$$
C11104-P2
     RDKit          3D

 36 39  0  0  0  0  0  0  0  0999 V2000
   -5.9028  -18.4581    8.8752 C   0  0  0  0  0  0  0  0  0  0  0  0
   -6.7238  -18.9169   10.1951 C   0  0  0  0  0  0  0  0  0  0  0  0
   -5.8446  -17.4882    8.7026 S   0  0  0  0  0  0  0  0  0  0  0  0
   -3.4056  -17.0148    9.0219 C   0  0  0  0  0  0  0  0  0  0  0  0
   -1.7909  -15.7094   10.0188 C   0  0  0  0  0  0  0  0  0  0  0  0
   -0.3898  -16.1592   10.3235 N   0  0  0  0  0  0  0  0  0  0  0  0
    0.7565  -14.9962   11.0246 O   0  0  0  0  0  0  0  0  0  0  0  0
    0.4344  -13.2699   11.3815 C   0  0  0  0  0  0  0  0  0  0  0  0
    1.7068  -11.4971   11.5657 C   0  0  0  0  0  0  0  0  0  0  0  0
    3.3738  -10.4493   12.6067 C   0  0  0  0  0  0  0  0  0  0  0  0
    4.4404   -8.8050   13.4790 C   0  0  0  0  0  0  0  0  0  0  0  0
    6.7925   -8.1312   13.8210 S   0  0  0  0  0  0  0  0  0  0  0  0
    8.1280   -6.5778   14.8816 C   0  0  0  0  0  0  0  0  0  0  0  0
    8.9262   -5.6193   14.2549 N   0  0  0  0  0  0  0  0  0  0  0  0
    9.4366   -4.1208   14.9329 C   0  0  0  0  0  0  0  0  0  0  0  0
   10.5507   -3.2455   14.8084 C   0  0  0  0  0  0  0  0  0  0  0  0
   10.2933   -1.8871   15.0597 C   0  0  0  0  0  0  0  0  0  0  0  0
    8.9570   -1.4432   15.1682 C   0  0  0  0  0  0  0  0  0  0  0  0
    7.8520   -2.3480   15.1853 C   0  0  0  0  0  0  0  0  0  0  0  0
    8.1982   -3.7207   15.3220 C   0  0  0  0  0  0  0  0  0  0  0  0
    7.5153   -5.3549   15.9049 O   0  0  0  0  0  0  0  0  0  0  0  0
   -0.9983  -14.1128   10.8305 N   0  0  0  0  0  0  0  0  0  0  0  0
   -3.8140  -18.4741    8.9979 C   0  0  0  0  0  0  0  0  0  0  0  0
   -6.7658  -19.3170    8.7608 H   0  0  0  0  0  0  0  0  0  0  0  0
   -6.4468  -18.9708   11.2630 H   0  0  0  0  0  0  0  0  0  0  0  0
    0.9852  -10.7214   11.2986 H   0  0  0  0  0  0  0  0  0  0  0  0
    2.3712  -11.7974   10.7355 H   0  0  0  0  0  0  0  0  0  0  0  0
    4.5049  -10.8145   12.7588 H   0  0  0  0  0  0  0  0  0  0  0  0
    3.1150  -10.6935   13.6598 H   0  0  0  0  0  0  0  0  0  0  0  0
    3.8695   -8.2404   14.1901 H   0  0  0  0  0  0  0  0  0  0  0  0
    4.1930   -7.9450   12.8418 H   0  0  0  0  0  0  0  0  0  0  0  0
   11.5080   -3.5841   14.4409 H   0  0  0  0  0  0  0  0  0  0  0  0
   11.0986   -1.1629   14.9585 H   0  0  0  0  0  0  0  0  0  0  0  0
    8.7700   -0.3728   15.1574 H   0  0  0  0  0  0  0  0  0  0  0  0
    6.8385   -1.9787   15.1451 H   0  0  0  0  0  0  0  0  0  0  0  0
   -3.3153  -19.3816    9.3530 H   0  0  0  0  0  0  0  0  0  0  0  0
  1  2  2  0
  2  3  1  0
  3  4  1  0
  4  5  1  0
  5  6  2  0
  6  7  1  0
  7  8  1  0
  8  9  1  0
  9 10  1  0
 10 11  1  0
 11 12  1  0
 12 13  1  0
 13 14  2  0
 14 15  1  0
 15 16  2  0
 16 17  1  0
 17 18  2  0
 18 19  1  0
 19 20  2  0
 20 21  1  0
  8 22  2  0
  4 23  2  0
 23  1  1  0
 22  5  1  0
 21 13  1  0
 20 15  1  0
  1 24  1  0
  2 25  1  0
  9 26  1  0
  9 27  1  0
 10 28  1  0
 10 29  1  0
 11 30  1  0
 11 31  1  0
 16 32  1  0
 17 33  1  0
 18 34  1  0
 19 35  1  0
 23 36  1  0
M  END
>  <Energy>  (677) 
2245.9590804536156

>  <compound_id>  (677) 
11104

>  <target_id>  (677) 
1

>  <reference_id>  (677) 
2

>  <inspiration_ids>  (677) 
[2, 120]

>  <energy_score>  (677) 
2156.5024166674225

>  <distance_score>  (677) 
8.63754847847841

>  <path>  (677) 
/opt/xchem-fragalysis-2/maxwin/BulkDock/SCRATCH/511022/C11104-P2/C11104-P2.minimised.mol

>  <scratch_subdir>  (677) 
/opt/xchem-fragalysis-2/maxwin/BulkDock/SCRATCH/511022/C11104-P2

>  <fragmenstein_runtime>  (677) 
18.590270519256592

>  <fragmenstein_outcome>  (677) 
too moved

>  <fragmenstein_mode>  (677) 
expansion

>  <fragmenstein_error>  (677) 


$$$$
C11104-P120
     RDKit          3D

 36 39  0  0  0  0  0  0  0  0999 V2000
   -3.0450  -15.5480   16.3322 C   0  0  0  0  0  0  0  0  0  0  0  0
   -2.8726  -14.6391   17.2491 C   0  0  0  0  0  0  0  0  0  0  0  0
   -1.6649  -13.7426   16.6277 S   0  0  0  0  0  0  0  0  0  0  0  0
   -1.1150  -13.9811   14.3436 C   0  0  0  0  0  0  0  0  0  0  0  0
    0.3500  -12.6251   13.4361 C   0  0  0  0  0  0  0  0  0  0  0  0
    0.5411  -11.9880   12.1037 N   0  0  0  0  0  0  0  0  0  0  0  0
    2.1343  -11.0363   11.9639 O   0  0  0  0  0  0  0  0  0  0  0  0
    3.0912  -10.7459   13.5119 C   0  0  0  0  0  0  0  0  0  0  0  0
    4.8395   -9.6390   13.9857 C   0  0  0  0  0  0  0  0  0  0  0  0
    6.4056   -8.0808   14.1016 C   0  0  0  0  0  0  0  0  0  0  0  0
    8.1182   -6.8578   14.7504 C   0  0  0  0  0  0  0  0  0  0  0  0
    8.8872   -4.3784   14.9482 S   0  0  0  0  0  0  0  0  0  0  0  0
   10.6784   -3.9424   14.9757 C   0  0  0  0  0  0  0  0  0  0  0  0
   11.2035   -3.2128   14.0028 N   0  0  0  0  0  0  0  0  0  0  0  0
   12.2249   -2.5128   14.5848 C   0  0  0  0  0  0  0  0  0  0  0  0
   13.0762   -1.5171   14.0810 C   0  0  0  0  0  0  0  0  0  0  0  0
   14.0347   -0.9594   14.9375 C   0  0  0  0  0  0  0  0  0  0  0  0
   14.1551   -1.4038   16.2584 C   0  0  0  0  0  0  0  0  0  0  0  0
   13.3255   -2.4144   16.7688 C   0  0  0  0  0  0  0  0  0  0  0  0
   12.3676   -2.9209   15.8967 C   0  0  0  0  0  0  0  0  0  0  0  0
   11.3939   -3.8455   16.1585 O   0  0  0  0  0  0  0  0  0  0  0  0
    1.6583  -11.6658   13.9837 N   0  0  0  0  0  0  0  0  0  0  0  0
   -2.2744  -15.0534   15.1507 C   0  0  0  0  0  0  0  0  0  0  0  0
   -3.7199  -16.3988   16.3484 H   0  0  0  0  0  0  0  0  0  0  0  0
   -3.2880  -14.5456   18.2424 H   0  0  0  0  0  0  0  0  0  0  0  0
    4.3021   -8.8565   13.4547 H   0  0  0  0  0  0  0  0  0  0  0  0
    5.4080  -10.5325   13.6652 H   0  0  0  0  0  0  0  0  0  0  0  0
    7.2004   -8.7440   13.6764 H   0  0  0  0  0  0  0  0  0  0  0  0
    6.0240   -7.4829   13.2892 H   0  0  0  0  0  0  0  0  0  0  0  0
    8.2862   -7.2077   13.7220 H   0  0  0  0  0  0  0  0  0  0  0  0
    8.9840   -7.5084   15.0303 H   0  0  0  0  0  0  0  0  0  0  0  0
   12.9868   -1.1881   13.0541 H   0  0  0  0  0  0  0  0  0  0  0  0
   14.7003   -0.1838   14.5644 H   0  0  0  0  0  0  0  0  0  0  0  0
   14.9177   -0.9666   16.9011 H   0  0  0  0  0  0  0  0  0  0  0  0
   13.4143   -2.7779   17.7849 H   0  0  0  0  0  0  0  0  0  0  0  0
   -2.7531  -15.7813   14.5226 H   0  0  0  0  0  0  0  0  0  0  0  0
  1  2  2  0
  2  3  1  0
  3  4  1  0
  4  5  1  0
  5  6  2  0
  6  7  1  0
  7  8  1  0
  8  9  1  0
  9 10  1  0
 10 11  1  0
 11 12  1  0
 12 13  1  0
 13 14  2  0
 14 15  1  0
 15 16  2  0
 16 17  1  0
 17 18  2  0
 18 19  1  0
 19 20  2  0
 20 21  1  0
  8 22  2  0
  4 23  2  0
 23  1  1  0
 22  5  1  0
 21 13  1  0
 20 15  1  0
  1 24  1  0
  2 25  1  0
  9 26  1  0
  9 27  1  0
 10 28  1  0
 10 29  1  0
 11 30  1  0
 11 31  1  0
 16 32  1  0
 17 33  1  0
 18 34  1  0
 19 35  1  0
 23 36  1  0
M  END
>  <Energy>  (678) 
1474.6905650373917

>  <compound_id>  (678) 
11104

>  <target_id>  (678) 
1

>  <reference_id>  (678) 
120

>  <inspiration_ids>  (678) 
[2, 120]

>  <energy_score>  (678) 
1385.233901251183

>  <distance_score>  (678) 
9.207788439500572

>  <path>  (678) 
/opt/xchem-fragalysis-2/maxwin/BulkDock/SCRATCH/511022/C11104-P120/C11104-P120.minimised.mol

>  <scratch_subdir>  (678) 
/opt/xchem-fragalysis-2/maxwin/BulkDock/SCRATCH/511022/C11104-P120

>  <fragmenstein_runtime>  (678) 
14.681634187698364

>  <fragmenstein_outcome>  (678) 
too moved

>  <fragmenstein_mode>  (678) 
expansion

>  <fragmenstein_error>  (678) 


$$$$
C76603-P2
     RDKit          3D

 36 38  0  0  0  0  0  0  0  0999 V2000
   -0.3013  -14.2601   13.0127 O   0  0  0  0  0  0  0  0  0  0  0  0
   -0.4314  -13.8473   11.8796 C   0  0  0  0  0  0  0  0  0  0  0  0
    0.8267  -12.2760   11.5711 C   0  0  0  0  0  0  0  0  0  0  0  0
    2.3397  -10.9540   12.0937 N   0  0  0  0  0  0  0  0  0  0  0  0
    4.0264  -10.4700   13.7052 S   0  0  0  0  0  0  0  0  0  0  0  0
    5.2533  -11.0981   13.2280 O   0  0  0  0  0  0  0  0  0  0  0  0
    3.8378  -10.9239   15.0593 O   0  0  0  0  0  0  0  0  0  0  0  0
    4.7406   -8.7415   14.4480 C   0  0  0  0  0  0  0  0  0  0  0  0
    6.1322   -8.7224   14.6097 C   0  0  0  0  0  0  0  0  0  0  0  0
    6.7814   -7.7803   15.3729 C   0  0  0  0  0  0  0  0  0  0  0  0
    6.0872   -6.9226   16.2057 C   0  0  0  0  0  0  0  0  0  0  0  0
    4.7316   -7.0499   16.2752 C   0  0  0  0  0  0  0  0  0  0  0  0
    4.1167   -8.0157   15.4680 C   0  0  0  0  0  0  0  0  0  0  0  0
   -1.7470  -14.4884   10.7089 N   0  0  0  0  0  0  0  0  0  0  0  0
   -3.2152  -15.7218   10.9604 C   0  0  0  0  0  0  0  0  0  0  0  0
   -2.4687  -17.3977   10.6275 C   0  0  0  0  0  0  0  0  0  0  0  0
   -3.1799  -19.0056   11.2321 C   0  0  0  0  0  0  0  0  0  0  0  0
   -4.8073  -19.0319   12.1822 C   0  0  0  0  0  0  0  0  0  0  0  0
   -6.0462  -17.5938   11.9876 C   0  0  0  0  0  0  0  0  0  0  0  0
   -6.6746  -18.5361   10.7117 O   0  0  0  0  0  0  0  0  0  0  0  0
   -6.2515  -17.6795    9.2636 C   0  0  0  0  0  0  0  0  0  0  0  0
   -6.4607  -16.1341   10.1161 N   0  0  0  0  0  0  0  0  0  0  0  0
   -5.2613  -15.8225   11.5791 C   0  0  0  0  0  0  0  0  0  0  0  0
    1.4909  -12.6586   10.8297 H   0  0  0  0  0  0  0  0  0  0  0  0
    0.1233  -11.4920   11.2886 H   0  0  0  0  0  0  0  0  0  0  0  0
    2.0969  -10.0318   11.7228 H   0  0  0  0  0  0  0  0  0  0  0  0
    6.7852   -9.4892   14.2008 H   0  0  0  0  0  0  0  0  0  0  0  0
    7.8523   -7.7303   15.2058 H   0  0  0  0  0  0  0  0  0  0  0  0
    6.5921   -6.2194   16.8413 H   0  0  0  0  0  0  0  0  0  0  0  0
    4.1570   -6.4992   17.0134 H   0  0  0  0  0  0  0  0  0  0  0  0
    3.1424   -8.2669   15.8043 H   0  0  0  0  0  0  0  0  0  0  0  0
   -1.6213  -14.0760    9.8208 H   0  0  0  0  0  0  0  0  0  0  0  0
   -1.4375  -17.4330   10.2731 H   0  0  0  0  0  0  0  0  0  0  0  0
   -2.6441  -19.9413   11.1002 H   0  0  0  0  0  0  0  0  0  0  0  0
   -5.3677  -19.9390   12.2316 H   0  0  0  0  0  0  0  0  0  0  0  0
   -6.8639  -17.9472    8.4242 H   0  0  0  0  0  0  0  0  0  0  0  0
  1  2  2  0
  2  3  1  0
  3  4  1  0
  4  5  1  0
  5  6  2  0
  5  7  2  0
  5  8  1  0
  8  9  2  0
  9 10  1  0
 10 11  2  0
 11 12  1  0
 12 13  2  0
  2 14  1  0
 14 15  1  0
 15 16  2  0
 16 17  1  0
 17 18  2  0
 18 19  1  0
 19 20  1  0
 20 21  1  0
 21 22  2  0
 22 23  1  0
 13  8  1  0
 23 15  1  0
 23 19  2  0
  3 24  1  0
  3 25  1  0
  4 26  1  0
  9 27  1  0
 10 28  1  0
 11 29  1  0
 12 30  1  0
 13 31  1  0
 14 32  1  0
 16 33  1  0
 17 34  1  0
 18 35  1  0
 21 36  1  0
M  END
>  <Energy>  (679) 
1528.8422725273217

>  <compound_id>  (679) 
76603

>  <target_id>  (679) 
1

>  <reference_id>  (679) 
2

>  <inspiration_ids>  (679) 
[2, 120]

>  <energy_score>  (679) 
1487.4521295549214

>  <distance_score>  (679) 
11.721621839476848

>  <path>  (679) 
/opt/xchem-fragalysis-2/maxwin/BulkDock/SCRATCH/511022/C76603-P2/C76603-P2.minimised.mol

>  <scratch_subdir>  (679) 
/opt/xchem-fragalysis-2/maxwin/BulkDock/SCRATCH/511022/C76603-P2

>  <fragmenstein_runtime>  (679) 
14.757709503173828

>  <fragmenstein_outcome>  (679) 
too moved

>  <fragmenstein_mode>  (679) 
expansion

>  <fragmenstein_error>  (679) 


$$$$
C76603-P120
     RDKit          3D

 36 38  0  0  0  0  0  0  0  0999 V2000
    0.0589   -7.0128    7.6785 O   0  0  0  0  0  0  0  0  0  0  0  0
   -0.6122   -6.4315    8.4903 C   0  0  0  0  0  0  0  0  0  0  0  0
    0.0500   -5.2236    9.3692 C   0  0  0  0  0  0  0  0  0  0  0  0
    1.6194   -4.9869    9.4802 N   0  0  0  0  0  0  0  0  0  0  0  0
    2.0754   -3.9080   10.7755 S   0  0  0  0  0  0  0  0  0  0  0  0
    1.1204   -2.8195   10.7410 O   0  0  0  0  0  0  0  0  0  0  0  0
    2.1811   -4.7576   11.9413 O   0  0  0  0  0  0  0  0  0  0  0  0
    3.6991   -3.1849   10.5068 C   0  0  0  0  0  0  0  0  0  0  0  0
    4.1329   -2.1990   11.4186 C   0  0  0  0  0  0  0  0  0  0  0  0
    5.3421   -1.5206   11.2221 C   0  0  0  0  0  0  0  0  0  0  0  0
    6.1267   -1.8281   10.1168 C   0  0  0  0  0  0  0  0  0  0  0  0
    5.7250   -2.8342    9.2360 C   0  0  0  0  0  0  0  0  0  0  0  0
    4.5096   -3.5148    9.4249 C   0  0  0  0  0  0  0  0  0  0  0  0
   -2.0172   -6.6794    8.9506 N   0  0  0  0  0  0  0  0  0  0  0  0
   -2.9553   -7.7517    8.6274 C   0  0  0  0  0  0  0  0  0  0  0  0
   -3.9318   -8.0103    9.6469 C   0  0  0  0  0  0  0  0  0  0  0  0
   -4.8643   -9.0727    9.6314 C   0  0  0  0  0  0  0  0  0  0  0  0
   -4.9586   -9.9221    8.5412 C   0  0  0  0  0  0  0  0  0  0  0  0
   -4.0903   -9.6181    7.5026 C   0  0  0  0  0  0  0  0  0  0  0  0
   -4.0948  -10.2467    6.2881 O   0  0  0  0  0  0  0  0  0  0  0  0
   -3.1044   -9.6122    5.6072 C   0  0  0  0  0  0  0  0  0  0  0  0
   -2.4591   -8.6813    6.2784 N   0  0  0  0  0  0  0  0  0  0  0  0
   -3.0925   -8.6220    7.5035 C   0  0  0  0  0  0  0  0  0  0  0  0
   -0.3741   -4.2951    8.9699 H   0  0  0  0  0  0  0  0  0  0  0  0
   -0.2987   -5.3706   10.3988 H   0  0  0  0  0  0  0  0  0  0  0  0
    2.0310   -5.8955    9.7090 H   0  0  0  0  0  0  0  0  0  0  0  0
    3.5064   -1.9330   12.2679 H   0  0  0  0  0  0  0  0  0  0  0  0
    5.6588   -0.7401   11.9095 H   0  0  0  0  0  0  0  0  0  0  0  0
    7.0387   -1.2717    9.9318 H   0  0  0  0  0  0  0  0  0  0  0  0
    6.3456   -3.0717    8.3746 H   0  0  0  0  0  0  0  0  0  0  0  0
    4.1979   -4.2673    8.7053 H   0  0  0  0  0  0  0  0  0  0  0  0
   -2.2360   -6.0457    9.7093 H   0  0  0  0  0  0  0  0  0  0  0  0
   -3.9206   -7.3929   10.5473 H   0  0  0  0  0  0  0  0  0  0  0  0
   -5.5201   -9.2158   10.4887 H   0  0  0  0  0  0  0  0  0  0  0  0
   -5.6825  -10.7228    8.4762 H   0  0  0  0  0  0  0  0  0  0  0  0
   -2.9256   -9.9397    4.5926 H   0  0  0  0  0  0  0  0  0  0  0  0
  1  2  2  0
  2  3  1  0
  3  4  1  0
  4  5  1  0
  5  6  2  0
  5  7  2  0
  5  8  1  0
  8  9  2  0
  9 10  1  0
 10 11  2  0
 11 12  1  0
 12 13  2  0
  2 14  1  0
 14 15  1  0
 15 16  2  0
 16 17  1  0
 17 18  2  0
 18 19  1  0
 19 20  1  0
 20 21  1  0
 21 22  2  0
 22 23  1  0
 13  8  1  0
 23 15  1  0
 23 19  2  0
  3 24  1  0
  3 25  1  0
  4 26  1  0
  9 27  1  0
 10 28  1  0
 11 29  1  0
 12 30  1  0
 13 31  1  0
 14 32  1  0
 16 33  1  0
 17 34  1  0
 18 35  1  0
 21 36  1  0
M  END
>  <Energy>  (680) 
45.765565141147988

>  <compound_id>  (680) 
76603

>  <target_id>  (680) 
1

>  <reference_id>  (680) 
120

>  <inspiration_ids>  (680) 
[2, 120]

>  <energy_score>  (680) 
4.375422168738311

>  <distance_score>  (680) 
13.144576139317516

>  <path>  (680) 
/opt/xchem-fragalysis-2/maxwin/BulkDock/SCRATCH/511022/C76603-P120/C76603-P120.minimised.mol

>  <scratch_subdir>  (680) 
/opt/xchem-fragalysis-2/maxwin/BulkDock/SCRATCH/511022/C76603-P120

>  <fragmenstein_runtime>  (680) 
14.110578775405884

>  <fragmenstein_outcome>  (680) 
too moved

>  <fragmenstein_mode>  (680) 
expansion

>  <fragmenstein_error>  (680) 


$$$$
C11106-P2
     RDKit          3D

 38 41  0  0  0  0  0  0  0  0999 V2000
    5.0129   -8.1456    7.0549 O   0  0  0  0  0  0  0  0  0  0  0  0
    5.4948   -9.0531    7.6221 C   0  0  0  0  0  0  0  0  0  0  0  0
    6.9236   -9.3949    7.8395 N   0  0  0  0  0  0  0  0  0  0  0  0
    8.1610   -8.6506    7.4957 C   0  0  0  0  0  0  0  0  0  0  0  0
    8.6466   -7.6262    8.5560 C   0  0  0  0  0  0  0  0  0  0  0  0
    9.7860   -6.7480    8.1083 C   0  0  0  0  0  0  0  0  0  0  0  0
    9.7457   -5.5787    7.4842 N   0  0  0  0  0  0  0  0  0  0  0  0
   11.0544   -5.1497    7.4920 C   0  0  0  0  0  0  0  0  0  0  0  0
   11.6581   -3.9952    6.9632 C   0  0  0  0  0  0  0  0  0  0  0  0
   13.0367   -3.8092    7.1609 C   0  0  0  0  0  0  0  0  0  0  0  0
   13.7859   -4.7306    7.9040 C   0  0  0  0  0  0  0  0  0  0  0  0
   13.1983   -5.8904    8.4319 C   0  0  0  0  0  0  0  0  0  0  0  0
   11.8424   -6.0678    8.1652 C   0  0  0  0  0  0  0  0  0  0  0  0
   11.0489   -7.1282    8.5088 O   0  0  0  0  0  0  0  0  0  0  0  0
    4.6980  -10.3754    8.3026 N   0  0  0  0  0  0  0  0  0  0  0  0
    3.0309  -10.8246    8.2502 C   0  0  0  0  0  0  0  0  0  0  0  0
    2.6445  -12.0425    8.0966 N   0  0  0  0  0  0  0  0  0  0  0  0
    1.7489  -12.3557    6.9272 N   0  0  0  0  0  0  0  0  0  0  0  0
    1.2742  -11.4562    6.1266 C   0  0  0  0  0  0  0  0  0  0  0  0
    0.3013  -11.9307    5.1393 C   0  0  0  0  0  0  0  0  0  0  0  0
    0.0734  -13.2806    4.8456 C   0  0  0  0  0  0  0  0  0  0  0  0
   -1.1291  -13.5205    4.1176 C   0  0  0  0  0  0  0  0  0  0  0  0
   -1.7579  -12.3392    3.8068 C   0  0  0  0  0  0  0  0  0  0  0  0
   -0.8705  -10.9669    4.3476 S   0  0  0  0  0  0  0  0  0  0  0  0
    1.8431   -9.9245    6.6082 S   0  0  0  0  0  0  0  0  0  0  0  0
    6.9840  -10.2829    8.2942 H   0  0  0  0  0  0  0  0  0  0  0  0
    7.9524   -8.1259    6.5566 H   0  0  0  0  0  0  0  0  0  0  0  0
    8.9394   -9.3964    7.3039 H   0  0  0  0  0  0  0  0  0  0  0  0
    7.8075   -6.9849    8.8508 H   0  0  0  0  0  0  0  0  0  0  0  0
    8.9602   -8.1787    9.4472 H   0  0  0  0  0  0  0  0  0  0  0  0
   11.0640   -3.2712    6.4172 H   0  0  0  0  0  0  0  0  0  0  0  0
   13.5211   -2.9248    6.7531 H   0  0  0  0  0  0  0  0  0  0  0  0
   14.8460   -4.5500    8.0693 H   0  0  0  0  0  0  0  0  0  0  0  0
   13.7607   -6.6210    8.9988 H   0  0  0  0  0  0  0  0  0  0  0  0
    5.3638  -11.0252    8.6403 H   0  0  0  0  0  0  0  0  0  0  0  0
    0.7003  -14.0748    5.2369 H   0  0  0  0  0  0  0  0  0  0  0  0
   -1.5061  -14.4990    3.8481 H   0  0  0  0  0  0  0  0  0  0  0  0
   -2.6795  -12.1997    3.2588 H   0  0  0  0  0  0  0  0  0  0  0  0
  1  2  2  0
  2  3  1  0
  3  4  1  0
  4  5  1  0
  5  6  1  0
  6  7  2  0
  7  8  1  0
  8  9  2  0
  9 10  1  0
 10 11  2  0
 11 12  1  0
 12 13  2  0
 13 14  1  0
  2 15  1  0
 15 16  1  0
 16 17  2  0
 17 18  1  0
 18 19  2  0
 19 20  1  0
 20 21  2  0
 21 22  1  0
 22 23  2  0
 23 24  1  0
 19 25  1  0
 14  6  1  0
 25 16  1  0
 13  8  1  0
 24 20  1  0
  3 26  1  0
  4 27  1  0
  4 28  1  0
  5 29  1  0
  5 30  1  0
  9 31  1  0
 10 32  1  0
 11 33  1  0
 12 34  1  0
 15 35  1  0
 21 36  1  0
 22 37  1  0
 23 38  1  0
M  END
>  <Energy>  (681) 
106.82962038020037

>  <compound_id>  (681) 
11106

>  <target_id>  (681) 
1

>  <reference_id>  (681) 
2

>  <inspiration_ids>  (681) 
[2, 120]

>  <energy_score>  (681) 
27.537708469812287

>  <distance_score>  (681) 
12.321738253557836

>  <path>  (681) 
/opt/xchem-fragalysis-2/maxwin/BulkDock/SCRATCH/511022/C11106-P2/C11106-P2.minimised.mol

>  <scratch_subdir>  (681) 
/opt/xchem-fragalysis-2/maxwin/BulkDock/SCRATCH/511022/C11106-P2

>  <fragmenstein_runtime>  (681) 
18.937164068222046

>  <fragmenstein_outcome>  (681) 
too moved

>  <fragmenstein_mode>  (681) 
expansion

>  <fragmenstein_error>  (681) 


$$$$
C11106-P120
     RDKit          3D

 38 41  0  0  0  0  0  0  0  0999 V2000
   -0.1475  -12.4335   12.3129 O   0  0  0  0  0  0  0  0  0  0  0  0
   -0.3458  -11.6967   11.3758 C   0  0  0  0  0  0  0  0  0  0  0  0
    0.8181  -10.4683   10.6340 N   0  0  0  0  0  0  0  0  0  0  0  0
    2.5973   -9.9719   11.0923 C   0  0  0  0  0  0  0  0  0  0  0  0
    3.2235   -8.0166   11.4382 C   0  0  0  0  0  0  0  0  0  0  0  0
    4.2240   -6.4726   11.8161 C   0  0  0  0  0  0  0  0  0  0  0  0
    3.7471   -5.3756   12.4445 N   0  0  0  0  0  0  0  0  0  0  0  0
    4.3067   -4.2606   11.8475 C   0  0  0  0  0  0  0  0  0  0  0  0
    4.2094   -2.8807   12.1139 C   0  0  0  0  0  0  0  0  0  0  0  0
    4.9402   -1.9749   11.3159 C   0  0  0  0  0  0  0  0  0  0  0  0
    5.7272   -2.4270   10.2511 C   0  0  0  0  0  0  0  0  0  0  0  0
    5.8255   -3.7980    9.9637 C   0  0  0  0  0  0  0  0  0  0  0  0
    5.1226   -4.6683   10.8165 C   0  0  0  0  0  0  0  0  0  0  0  0
    5.2182   -6.0707   10.8979 O   0  0  0  0  0  0  0  0  0  0  0  0
   -1.8053  -11.6300   10.2939 N   0  0  0  0  0  0  0  0  0  0  0  0
   -3.2496  -12.6548   10.2046 C   0  0  0  0  0  0  0  0  0  0  0  0
   -4.0511  -12.5225    9.0698 N   0  0  0  0  0  0  0  0  0  0  0  0
   -5.1699  -13.5871    8.5153 N   0  0  0  0  0  0  0  0  0  0  0  0
   -5.7438  -14.4588    9.3635 C   0  0  0  0  0  0  0  0  0  0  0  0
   -6.7870  -16.0387    9.3324 C   0  0  0  0  0  0  0  0  0  0  0  0
   -6.4044  -17.8534    9.2800 C   0  0  0  0  0  0  0  0  0  0  0  0
   -7.1673  -18.8839   10.6535 C   0  0  0  0  0  0  0  0  0  0  0  0
   -8.1780  -19.3139    9.7912 C   0  0  0  0  0  0  0  0  0  0  0  0
   -7.9139  -17.6013    8.2458 S   0  0  0  0  0  0  0  0  0  0  0  0
   -4.3521  -13.9712   11.0148 S   0  0  0  0  0  0  0  0  0  0  0  0
    0.4062  -10.0551    9.8042 H   0  0  0  0  0  0  0  0  0  0  0  0
    2.8832  -10.6940   11.8388 H   0  0  0  0  0  0  0  0  0  0  0  0
    3.1456  -10.3227   10.2089 H   0  0  0  0  0  0  0  0  0  0  0  0
    3.7362   -8.2220   12.3881 H   0  0  0  0  0  0  0  0  0  0  0  0
    2.2648   -7.4359   11.3955 H   0  0  0  0  0  0  0  0  0  0  0  0
    3.5919   -2.5270   12.9318 H   0  0  0  0  0  0  0  0  0  0  0  0
    4.8907   -0.9084   11.5284 H   0  0  0  0  0  0  0  0  0  0  0  0
    6.2892   -1.7079    9.6567 H   0  0  0  0  0  0  0  0  0  0  0  0
    6.4693   -4.1795    9.1808 H   0  0  0  0  0  0  0  0  0  0  0  0
   -1.7229  -10.8660    9.6562 H   0  0  0  0  0  0  0  0  0  0  0  0
   -5.3741  -18.1337    9.0561 H   0  0  0  0  0  0  0  0  0  0  0  0
   -6.7512  -19.4345   11.4959 H   0  0  0  0  0  0  0  0  0  0  0  0
   -8.9821  -20.0296    9.6003 H   0  0  0  0  0  0  0  0  0  0  0  0
  1  2  2  0
  2  3  1  0
  3  4  1  0
  4  5  1  0
  5  6  1  0
  6  7  2  0
  7  8  1  0
  8  9  2  0
  9 10  1  0
 10 11  2  0
 11 12  1  0
 12 13  2  0
 13 14  1  0
  2 15  1  0
 15 16  1  0
 16 17  2  0
 17 18  1  0
 18 19  2  0
 19 20  1  0
 20 21  2  0
 21 22  1  0
 22 23  2  0
 23 24  1  0
 19 25  1  0
 14  6  1  0
 25 16  1  0
 13  8  1  0
 24 20  1  0
  3 26  1  0
  4 27  1  0
  4 28  1  0
  5 29  1  0
  5 30  1  0
  9 31  1  0
 10 32  1  0
 11 33  1  0
 12 34  1  0
 15 35  1  0
 21 36  1  0
 22 37  1  0
 23 38  1  0
M  END
>  <Energy>  (682) 
888.6656445855233

>  <compound_id>  (682) 
11106

>  <target_id>  (682) 
1

>  <reference_id>  (682) 
120

>  <inspiration_ids>  (682) 
[2, 120]

>  <energy_score>  (682) 
809.3737326751341

>  <distance_score>  (682) 
10.68109565162

>  <path>  (682) 
/opt/xchem-fragalysis-2/maxwin/BulkDock/SCRATCH/511022/C11106-P120/C11106-P120.minimised.mol

>  <scratch_subdir>  (682) 
/opt/xchem-fragalysis-2/maxwin/BulkDock/SCRATCH/511022/C11106-P120

>  <fragmenstein_runtime>  (682) 
20.84292244911194

>  <fragmenstein_outcome>  (682) 
too moved

>  <fragmenstein_mode>  (682) 
expansion

>  <fragmenstein_error>  (682) 


$$$$
C55934-P96
     RDKit          3D

 39 41  0  0  0  0  0  0  0  0999 V2000
   -1.8346  -16.1013   26.0737 C   0  0  0  0  0  0  0  0  0  0  0  0
   -2.2086  -14.7988   26.6046 N   0  0  0  0  0  0  0  0  0  0  0  0
   -2.4148  -14.8829   27.9383 N   0  0  0  0  0  0  0  0  0  0  0  0
   -2.9001  -13.7202   28.2875 C   0  0  0  0  0  0  0  0  0  0  0  0
   -2.8958  -12.8265   27.2104 C   0  0  0  0  0  0  0  0  0  0  0  0
   -2.2440  -13.3639   26.0322 C   0  0  0  0  0  0  0  0  0  0  0  0
   -2.1467  -12.7573   24.1285 C   0  0  0  0  0  0  0  0  0  0  0  0
   -0.3788  -12.6218   23.0317 C   0  0  0  0  0  0  0  0  0  0  0  0
    0.9002  -11.4915   22.1067 N   0  0  0  0  0  0  0  0  0  0  0  0
    2.3101  -11.5143   22.0734 C   0  0  0  0  0  0  0  0  0  0  0  0
    3.0887  -12.1893   22.6826 O   0  0  0  0  0  0  0  0  0  0  0  0
    3.0202  -10.3673   20.7180 C   0  0  0  0  0  0  0  0  0  0  0  0
    2.5830  -10.6628   19.7020 O   0  0  0  0  0  0  0  0  0  0  0  0
    4.3752   -9.0409   20.8087 N   0  0  0  0  0  0  0  0  0  0  0  0
    5.0952   -8.3332   19.7549 C   0  0  0  0  0  0  0  0  0  0  0  0
    6.5890   -8.0973   20.0635 C   0  0  0  0  0  0  0  0  0  0  0  0
    7.6918   -8.4965   19.3008 C   0  0  0  0  0  0  0  0  0  0  0  0
    8.7566   -7.8037   19.8043 N   0  0  0  0  0  0  0  0  0  0  0  0
   10.0773   -7.6043   19.4698 C   0  0  0  0  0  0  0  0  0  0  0  0
   10.6606   -6.6869   20.2640 C   0  0  0  0  0  0  0  0  0  0  0  0
    9.5627   -6.0620   21.5081 S   0  0  0  0  0  0  0  0  0  0  0  0
    8.3011   -7.0793   20.8648 C   0  0  0  0  0  0  0  0  0  0  0  0
    7.0077   -7.1871   21.0497 N   0  0  0  0  0  0  0  0  0  0  0  0
   -0.7738  -16.2730   26.2729 H   0  0  0  0  0  0  0  0  0  0  0  0
   -2.0591  -16.1841   25.0235 H   0  0  0  0  0  0  0  0  0  0  0  0
   -2.4146  -16.8706   26.5963 H   0  0  0  0  0  0  0  0  0  0  0  0
   -3.2732  -13.5681   29.2916 H   0  0  0  0  0  0  0  0  0  0  0  0
   -3.4345  -11.8958   27.3149 H   0  0  0  0  0  0  0  0  0  0  0  0
   -2.7217  -11.8368   24.0485 H   0  0  0  0  0  0  0  0  0  0  0  0
   -2.7080  -13.6040   23.6795 H   0  0  0  0  0  0  0  0  0  0  0  0
   -0.9677  -12.6900   22.1133 H   0  0  0  0  0  0  0  0  0  0  0  0
    0.1208  -11.9004   23.8183 H   0  0  0  0  0  0  0  0  0  0  0  0
    0.5653  -10.7123   21.5096 H   0  0  0  0  0  0  0  0  0  0  0  0
    4.7059   -8.9693   21.7534 H   0  0  0  0  0  0  0  0  0  0  0  0
    4.7053   -7.3134   19.7241 H   0  0  0  0  0  0  0  0  0  0  0  0
    5.0395   -8.9203   18.8365 H   0  0  0  0  0  0  0  0  0  0  0  0
    7.7709   -9.1295   18.4272 H   0  0  0  0  0  0  0  0  0  0  0  0
   10.5273   -8.1383   18.6468 H   0  0  0  0  0  0  0  0  0  0  0  0
   11.6895   -6.3560   20.1988 H   0  0  0  0  0  0  0  0  0  0  0  0
  1  2  1  0
  2  3  1  0
  3  4  2  0
  4  5  1  0
  5  6  2  0
  6  7  1  0
  7  8  1  0
  8  9  1  0
  9 10  1  0
 10 11  2  0
 10 12  1  0
 12 13  2  0
 12 14  1  0
 14 15  1  0
 15 16  1  0
 16 17  2  0
 17 18  1  0
 18 19  1  0
 19 20  2  0
 20 21  1  0
 21 22  1  0
 22 23  2  0
  6  2  1  0
 23 16  1  0
 22 18  1  0
  1 24  1  0
  1 25  1  0
  1 26  1  0
  4 27  1  0
  5 28  1  0
  7 29  1  0
  7 30  1  0
  8 31  1  0
  8 32  1  0
  9 33  1  0
 14 34  1  0
 15 35  1  0
 15 36  1  0
 17 37  1  0
 19 38  1  0
 20 39  1  0
M  END
>  <Energy>  (683) 
493.00827824601413

>  <compound_id>  (683) 
55934

>  <target_id>  (683) 
1

>  <reference_id>  (683) 
96

>  <inspiration_ids>  (683) 
[96, 103]

>  <energy_score>  (683) 
384.15113651695174

>  <distance_score>  (683) 
12.0782547791838

>  <path>  (683) 
/opt/xchem-fragalysis-2/maxwin/BulkDock/SCRATCH/511022/C55934-P96/C55934-P96.minimised.mol

>  <scratch_subdir>  (683) 
/opt/xchem-fragalysis-2/maxwin/BulkDock/SCRATCH/511022/C55934-P96

>  <fragmenstein_runtime>  (683) 
19.356637001037598

>  <fragmenstein_outcome>  (683) 
too moved

>  <fragmenstein_mode>  (683) 
expansion

>  <fragmenstein_error>  (683) 


$$$$
C55934-P103
     RDKit          3D

 39 41  0  0  0  0  0  0  0  0999 V2000
    1.1286  -14.4868   27.9701 C   0  0  0  0  0  0  0  0  0  0  0  0
   -0.0152  -14.8077   27.1268 N   0  0  0  0  0  0  0  0  0  0  0  0
   -1.0848  -15.4486   27.7248 N   0  0  0  0  0  0  0  0  0  0  0  0
   -2.0291  -15.5375   26.8003 C   0  0  0  0  0  0  0  0  0  0  0  0
   -1.6759  -14.9346   25.5531 C   0  0  0  0  0  0  0  0  0  0  0  0
   -0.3599  -14.3061   25.5833 C   0  0  0  0  0  0  0  0  0  0  0  0
    0.7538  -13.9867   24.0555 C   0  0  0  0  0  0  0  0  0  0  0  0
    2.1281  -12.4854   23.8624 C   0  0  0  0  0  0  0  0  0  0  0  0
    3.3947  -12.1933   22.5347 N   0  0  0  0  0  0  0  0  0  0  0  0
    4.7301  -10.9876   22.4051 C   0  0  0  0  0  0  0  0  0  0  0  0
    5.0333  -10.0332   23.1449 O   0  0  0  0  0  0  0  0  0  0  0  0
    5.9423  -11.1760   21.1390 C   0  0  0  0  0  0  0  0  0  0  0  0
    5.8683  -11.9704   20.2575 O   0  0  0  0  0  0  0  0  0  0  0  0
    7.0084  -10.2504   21.4958 N   0  0  0  0  0  0  0  0  0  0  0  0
    8.2602   -9.9460   20.8349 C   0  0  0  0  0  0  0  0  0  0  0  0
    9.0979   -8.9181   21.5769 C   0  0  0  0  0  0  0  0  0  0  0  0
    8.9057   -8.2986   22.8123 C   0  0  0  0  0  0  0  0  0  0  0  0
   10.0436   -7.5764   23.0408 N   0  0  0  0  0  0  0  0  0  0  0  0
   10.5856   -6.8396   24.0730 C   0  0  0  0  0  0  0  0  0  0  0  0
   11.7877   -6.3283   23.7421 C   0  0  0  0  0  0  0  0  0  0  0  0
   12.2940   -6.7732   22.1026 S   0  0  0  0  0  0  0  0  0  0  0  0
   10.8197   -7.6919   21.9350 C   0  0  0  0  0  0  0  0  0  0  0  0
   10.3189   -8.5037   21.0422 N   0  0  0  0  0  0  0  0  0  0  0  0
    1.7888  -13.8101   27.4407 H   0  0  0  0  0  0  0  0  0  0  0  0
    1.6198  -15.4202   28.2543 H   0  0  0  0  0  0  0  0  0  0  0  0
    0.7618  -13.9993   28.8781 H   0  0  0  0  0  0  0  0  0  0  0  0
   -2.9302  -16.0930   27.0264 H   0  0  0  0  0  0  0  0  0  0  0  0
   -2.2083  -15.2058   24.6635 H   0  0  0  0  0  0  0  0  0  0  0  0
    1.3082  -14.7265   23.4473 H   0  0  0  0  0  0  0  0  0  0  0  0
   -0.1187  -13.8989   23.3469 H   0  0  0  0  0  0  0  0  0  0  0  0
    1.4832  -11.8142   23.3013 H   0  0  0  0  0  0  0  0  0  0  0  0
    2.0327  -11.8996   24.7115 H   0  0  0  0  0  0  0  0  0  0  0  0
    3.3796  -12.7994   21.7068 H   0  0  0  0  0  0  0  0  0  0  0  0
    6.7621   -9.7770   22.3616 H   0  0  0  0  0  0  0  0  0  0  0  0
    8.8198  -10.8813   20.7330 H   0  0  0  0  0  0  0  0  0  0  0  0
    8.0236   -9.5832   19.8301 H   0  0  0  0  0  0  0  0  0  0  0  0
    8.1138   -8.3601   23.5436 H   0  0  0  0  0  0  0  0  0  0  0  0
   10.0552   -6.7205   25.0042 H   0  0  0  0  0  0  0  0  0  0  0  0
   12.4109   -5.7121   24.3768 H   0  0  0  0  0  0  0  0  0  0  0  0
  1  2  1  0
  2  3  1  0
  3  4  2  0
  4  5  1  0
  5  6  2  0
  6  7  1  0
  7  8  1  0
  8  9  1  0
  9 10  1  0
 10 11  2  0
 10 12  1  0
 12 13  2  0
 12 14  1  0
 14 15  1  0
 15 16  1  0
 16 17  2  0
 17 18  1  0
 18 19  1  0
 19 20  2  0
 20 21  1  0
 21 22  1  0
 22 23  2  0
  6  2  1  0
 23 16  1  0
 22 18  1  0
  1 24  1  0
  1 25  1  0
  1 26  1  0
  4 27  1  0
  5 28  1  0
  7 29  1  0
  7 30  1  0
  8 31  1  0
  8 32  1  0
  9 33  1  0
 14 34  1  0
 15 35  1  0
 15 36  1  0
 17 37  1  0
 19 38  1  0
 20 39  1  0
M  END
>  <Energy>  (684) 
362.69126138081589

>  <compound_id>  (684) 
55934

>  <target_id>  (684) 
1

>  <reference_id>  (684) 
103

>  <inspiration_ids>  (684) 
[96, 103]

>  <energy_score>  (684) 
253.83411965174798

>  <distance_score>  (684) 
12.09279367755748

>  <path>  (684) 
/opt/xchem-fragalysis-2/maxwin/BulkDock/SCRATCH/511022/C55934-P103/C55934-P103.minimised.mol

>  <scratch_subdir>  (684) 
/opt/xchem-fragalysis-2/maxwin/BulkDock/SCRATCH/511022/C55934-P103

>  <fragmenstein_runtime>  (684) 
24.55466341972351

>  <fragmenstein_outcome>  (684) 
too moved

>  <fragmenstein_mode>  (684) 
expansion

>  <fragmenstein_error>  (684) 


$$$$
C55935-P96
     RDKit          3D

 34 36  0  0  0  0  0  0  0  0999 V2000
    2.4145  -19.1757   23.7021 C   0  0  0  0  0  0  0  0  0  0  0  0
    3.3950  -18.8306   22.7087 N   0  0  0  0  0  0  0  0  0  0  0  0
    4.1830  -17.7031   22.6653 C   0  0  0  0  0  0  0  0  0  0  0  0
    4.8985  -17.7464   21.4766 C   0  0  0  0  0  0  0  0  0  0  0  0
    5.8268  -16.7495   20.8262 C   0  0  0  0  0  0  0  0  0  0  0  0
    6.3030  -17.0030   19.7171 O   0  0  0  0  0  0  0  0  0  0  0  0
    6.1683  -15.3814   21.5139 C   0  0  0  0  0  0  0  0  0  0  0  0
    6.8456  -14.2237   20.8537 N   0  0  0  0  0  0  0  0  0  0  0  0
    8.1318  -13.6141   21.0995 C   0  0  0  0  0  0  0  0  0  0  0  0
    9.0154  -13.9315   21.8417 O   0  0  0  0  0  0  0  0  0  0  0  0
    8.3638  -12.2932   20.3614 C   0  0  0  0  0  0  0  0  0  0  0  0
    9.5153  -11.5171   20.5153 C   0  0  0  0  0  0  0  0  0  0  0  0
    9.3554  -10.3779   19.7730 N   0  0  0  0  0  0  0  0  0  0  0  0
   10.2057   -9.2776   19.6344 C   0  0  0  0  0  0  0  0  0  0  0  0
    9.8291   -8.2487   18.8571 C   0  0  0  0  0  0  0  0  0  0  0  0
    8.5548   -8.3335   18.1611 C   0  0  0  0  0  0  0  0  0  0  0  0
    7.7389   -9.3994   18.3017 C   0  0  0  0  0  0  0  0  0  0  0  0
    8.1146  -10.4862   19.1540 C   0  0  0  0  0  0  0  0  0  0  0  0
    7.4953  -11.6123   19.4988 N   0  0  0  0  0  0  0  0  0  0  0  0
    4.4712  -18.9913   20.9193 C   0  0  0  0  0  0  0  0  0  0  0  0
    3.5957  -19.6587   21.6760 N   0  0  0  0  0  0  0  0  0  0  0  0
    1.5970  -19.7225   23.2258 H   0  0  0  0  0  0  0  0  0  0  0  0
    2.8990  -19.7971   24.4584 H   0  0  0  0  0  0  0  0  0  0  0  0
    2.0372  -18.2524   24.1416 H   0  0  0  0  0  0  0  0  0  0  0  0
    4.1020  -16.9580   23.4376 H   0  0  0  0  0  0  0  0  0  0  0  0
    5.2331  -14.9694   21.9042 H   0  0  0  0  0  0  0  0  0  0  0  0
    6.8222  -15.6491   22.3483 H   0  0  0  0  0  0  0  0  0  0  0  0
    6.3848  -13.7293   20.0936 H   0  0  0  0  0  0  0  0  0  0  0  0
   10.4019  -11.6939   21.1084 H   0  0  0  0  0  0  0  0  0  0  0  0
   11.1427   -9.3032   20.1766 H   0  0  0  0  0  0  0  0  0  0  0  0
   10.4569   -7.3742   18.7338 H   0  0  0  0  0  0  0  0  0  0  0  0
    8.2759   -7.5171   17.5053 H   0  0  0  0  0  0  0  0  0  0  0  0
    6.7945   -9.4663   17.7733 H   0  0  0  0  0  0  0  0  0  0  0  0
    4.7801  -19.4237   19.9750 H   0  0  0  0  0  0  0  0  0  0  0  0
  1  2  1  0
  2  3  1  0
  3  4  2  0
  4  5  1  0
  5  6  2  0
  5  7  1  0
  7  8  1  0
  8  9  1  0
  9 10  2  0
  9 11  1  0
 11 12  2  0
 12 13  1  0
 13 14  1  0
 14 15  2  0
 15 16  1  0
 16 17  2  0
 17 18  1  0
 18 19  2  0
  4 20  1  0
 20 21  2  0
 21  2  1  0
 19 11  1  0
 18 13  1  0
  1 22  1  0
  1 23  1  0
  1 24  1  0
  3 25  1  0
  7 26  1  0
  7 27  1  0
  8 28  1  0
 12 29  1  0
 14 30  1  0
 15 31  1  0
 16 32  1  0
 17 33  1  0
 20 34  1  0
M  END
>  <Energy>  (685) 
84.760200450414686

>  <compound_id>  (685) 
55935

>  <target_id>  (685) 
1

>  <reference_id>  (685) 
96

>  <inspiration_ids>  (685) 
[96, 103]

>  <energy_score>  (685) 
-13.12233647406174

>  <distance_score>  (685) 
14.564069157929913

>  <path>  (685) 
/opt/xchem-fragalysis-2/maxwin/BulkDock/SCRATCH/511022/C55935-P96/C55935-P96.minimised.mol

>  <scratch_subdir>  (685) 
/opt/xchem-fragalysis-2/maxwin/BulkDock/SCRATCH/511022/C55935-P96

>  <fragmenstein_runtime>  (685) 
16.638131856918335

>  <fragmenstein_outcome>  (685) 
too moved

>  <fragmenstein_mode>  (685) 
expansion

>  <fragmenstein_error>  (685) 


$$$$
C55935-P103
     RDKit          3D

 34 36  0  0  0  0  0  0  0  0999 V2000
   -2.1532   -6.4459   27.6433 C   0  0  0  0  0  0  0  0  0  0  0  0
   -1.5040   -6.9254   26.4438 N   0  0  0  0  0  0  0  0  0  0  0  0
   -0.5344   -6.2099   25.8506 C   0  0  0  0  0  0  0  0  0  0  0  0
   -0.3819   -6.6317   24.5442 C   0  0  0  0  0  0  0  0  0  0  0  0
    0.5249   -6.1324   23.4352 C   0  0  0  0  0  0  0  0  0  0  0  0
    0.4740   -6.6620   22.3228 O   0  0  0  0  0  0  0  0  0  0  0  0
    1.4853   -4.8899   23.6343 C   0  0  0  0  0  0  0  0  0  0  0  0
    2.7566   -4.5785   22.8819 N   0  0  0  0  0  0  0  0  0  0  0  0
    2.9697   -3.9368   21.4763 C   0  0  0  0  0  0  0  0  0  0  0  0
    2.1915   -3.6254   20.6605 O   0  0  0  0  0  0  0  0  0  0  0  0
    4.4404   -3.5542   21.1471 C   0  0  0  0  0  0  0  0  0  0  0  0
    5.6956   -3.8023   21.7269 C   0  0  0  0  0  0  0  0  0  0  0  0
    6.4999   -2.7272   21.3786 N   0  0  0  0  0  0  0  0  0  0  0  0
    7.6448   -2.2388   21.9914 C   0  0  0  0  0  0  0  0  0  0  0  0
    7.9472   -0.9412   21.8003 C   0  0  0  0  0  0  0  0  0  0  0  0
    7.1787   -0.1424   20.8732 C   0  0  0  0  0  0  0  0  0  0  0  0
    6.1415   -0.6679   20.2180 C   0  0  0  0  0  0  0  0  0  0  0  0
    5.7649   -1.9865   20.4800 C   0  0  0  0  0  0  0  0  0  0  0  0
    4.6525   -2.5761   20.1608 N   0  0  0  0  0  0  0  0  0  0  0  0
   -1.3134   -7.6208   24.4877 C   0  0  0  0  0  0  0  0  0  0  0  0
   -1.7773   -7.9869   25.7011 N   0  0  0  0  0  0  0  0  0  0  0  0
   -1.6469   -6.8786   28.5093 H   0  0  0  0  0  0  0  0  0  0  0  0
   -2.0517   -5.3564   27.6895 H   0  0  0  0  0  0  0  0  0  0  0  0
   -3.2159   -6.6729   27.6282 H   0  0  0  0  0  0  0  0  0  0  0  0
   -0.0502   -5.3897   26.3609 H   0  0  0  0  0  0  0  0  0  0  0  0
    0.8409   -4.0237   23.4361 H   0  0  0  0  0  0  0  0  0  0  0  0
    1.7720   -4.8311   24.6875 H   0  0  0  0  0  0  0  0  0  0  0  0
    3.6517   -4.7930   23.2939 H   0  0  0  0  0  0  0  0  0  0  0  0
    5.9902   -4.4764   22.5167 H   0  0  0  0  0  0  0  0  0  0  0  0
    8.1261   -2.8639   22.7340 H   0  0  0  0  0  0  0  0  0  0  0  0
    8.6793   -0.4382   22.4286 H   0  0  0  0  0  0  0  0  0  0  0  0
    7.3169    0.9343   20.8778 H   0  0  0  0  0  0  0  0  0  0  0  0
    5.3768   -0.0951   19.7170 H   0  0  0  0  0  0  0  0  0  0  0  0
   -1.6280   -8.0539   23.5347 H   0  0  0  0  0  0  0  0  0  0  0  0
  1  2  1  0
  2  3  1  0
  3  4  2  0
  4  5  1  0
  5  6  2  0
  5  7  1  0
  7  8  1  0
  8  9  1  0
  9 10  2  0
  9 11  1  0
 11 12  2  0
 12 13  1  0
 13 14  1  0
 14 15  2  0
 15 16  1  0
 16 17  2  0
 17 18  1  0
 18 19  2  0
  4 20  1  0
 20 21  2  0
 21  2  1  0
 19 11  1  0
 18 13  1  0
  1 22  1  0
  1 23  1  0
  1 24  1  0
  3 25  1  0
  7 26  1  0
  7 27  1  0
  8 28  1  0
 12 29  1  0
 14 30  1  0
 15 31  1  0
 16 32  1  0
 17 33  1  0
 20 34  1  0
M  END
>  <Energy>  (686) 
145.27792523318342

>  <compound_id>  (686) 
55935

>  <target_id>  (686) 
1

>  <reference_id>  (686) 
103

>  <inspiration_ids>  (686) 
[96, 103]

>  <energy_score>  (686) 
50.247906124166775

>  <distance_score>  (686) 
14.753385721383522

>  <path>  (686) 
/opt/xchem-fragalysis-2/maxwin/BulkDock/SCRATCH/511022/C55935-P103/C55935-P103.minimised.mol

>  <scratch_subdir>  (686) 
/opt/xchem-fragalysis-2/maxwin/BulkDock/SCRATCH/511022/C55935-P103

>  <fragmenstein_runtime>  (686) 
12.207334995269775

>  <fragmenstein_outcome>  (686) 
too moved

>  <fragmenstein_mode>  (686) 
expansion

>  <fragmenstein_error>  (686) 


$$$$
C55940-P96
     RDKit          3D

 36 39  0  0  0  0  0  0  0  0999 V2000
    4.8197  -12.9604   17.3348 O   0  0  0  0  0  0  0  0  0  0  0  0
    4.2178  -11.9557   17.6915 C   0  0  0  0  0  0  0  0  0  0  0  0
    3.0936  -11.8062   19.1021 N   0  0  0  0  0  0  0  0  0  0  0  0
    2.6538  -13.0478   20.4521 C   0  0  0  0  0  0  0  0  0  0  0  0
    3.8635  -13.3224   21.8666 C   0  0  0  0  0  0  0  0  0  0  0  0
    4.2421  -14.4398   22.3921 N   0  0  0  0  0  0  0  0  0  0  0  0
    3.1430  -15.1770   22.1619 N   0  0  0  0  0  0  0  0  0  0  0  0
    2.9078  -16.9190   23.0368 C   0  0  0  0  0  0  0  0  0  0  0  0
    4.0752  -18.1567   23.6657 C   0  0  0  0  0  0  0  0  0  0  0  0
    3.7351  -19.6605   23.8169 C   0  0  0  0  0  0  0  0  0  0  0  0
    2.3661  -19.8946   23.3220 C   0  0  0  0  0  0  0  0  0  0  0  0
    1.8749  -18.5547   22.8019 C   0  0  0  0  0  0  0  0  0  0  0  0
    2.3545  -13.4837   21.7258 C   0  0  0  0  0  0  0  0  0  0  0  0
    4.6495  -10.8040   16.8540 C   0  0  0  0  0  0  0  0  0  0  0  0
    4.3254  -10.5242   15.4877 C   0  0  0  0  0  0  0  0  0  0  0  0
    5.2108   -9.6958   14.8206 N   0  0  0  0  0  0  0  0  0  0  0  0
    6.2683   -9.8436   15.5476 C   0  0  0  0  0  0  0  0  0  0  0  0
    7.9591   -9.8005   15.1339 S   0  0  0  0  0  0  0  0  0  0  0  0
    8.3126  -10.6975   16.5904 C   0  0  0  0  0  0  0  0  0  0  0  0
    7.2015  -11.0364   17.2645 C   0  0  0  0  0  0  0  0  0  0  0  0
    6.0379  -10.5506   16.6916 N   0  0  0  0  0  0  0  0  0  0  0  0
    2.8091  -10.8530   19.2064 H   0  0  0  0  0  0  0  0  0  0  0  0
    3.9926  -12.6811   22.7689 H   0  0  0  0  0  0  0  0  0  0  0  0
    3.2326  -17.2080   21.9954 H   0  0  0  0  0  0  0  0  0  0  0  0
    4.7118  -18.3783   22.8072 H   0  0  0  0  0  0  0  0  0  0  0  0
    4.5751  -17.8097   24.5719 H   0  0  0  0  0  0  0  0  0  0  0  0
    3.9246  -20.0628   24.8162 H   0  0  0  0  0  0  0  0  0  0  0  0
    4.4349  -20.2563   23.2088 H   0  0  0  0  0  0  0  0  0  0  0  0
    1.7133  -20.3493   24.0730 H   0  0  0  0  0  0  0  0  0  0  0  0
    2.3789  -20.6322   22.5081 H   0  0  0  0  0  0  0  0  0  0  0  0
    1.8649  -18.7850   21.7127 H   0  0  0  0  0  0  0  0  0  0  0  0
    0.8399  -18.3999   23.1537 H   0  0  0  0  0  0  0  0  0  0  0  0
    2.3651  -12.4879   22.2799 H   0  0  0  0  0  0  0  0  0  0  0  0
    3.4339  -10.8791   14.9785 H   0  0  0  0  0  0  0  0  0  0  0  0
    9.3203  -10.9972   16.8469 H   0  0  0  0  0  0  0  0  0  0  0  0
    7.1471  -11.6497   18.1322 H   0  0  0  0  0  0  0  0  0  0  0  0
  1  2  2  0
  2  3  1  0
  3  4  1  0
  4  5  1  0
  5  6  2  0
  6  7  1  0
  7  8  1  0
  8  9  1  0
  9 10  1  0
 10 11  1  0
 11 12  1  0
  7 13  1  0
  2 14  1  0
 14 15  2  0
 15 16  1  0
 16 17  2  0
 17 18  1  0
 18 19  1  0
 19 20  2  0
 20 21  1  0
 13  4  2  0
 21 14  1  0
 12  8  1  0
 21 17  1  0
  3 22  1  0
  5 23  1  0
  8 24  1  0
  9 25  1  0
  9 26  1  0
 10 27  1  0
 10 28  1  0
 11 29  1  0
 11 30  1  0
 12 31  1  0
 12 32  1  0
 13 33  1  0
 15 34  1  0
 19 35  1  0
 20 36  1  0
M  END
>  <Energy>  (687) 
816.76933726606569

>  <compound_id>  (687) 
55940

>  <target_id>  (687) 
1

>  <reference_id>  (687) 
96

>  <inspiration_ids>  (687) 
[96, 103]

>  <energy_score>  (687) 
750.5758513774834

>  <distance_score>  (687) 
14.924993180787213

>  <path>  (687) 
/opt/xchem-fragalysis-2/maxwin/BulkDock/SCRATCH/511022/C55940-P96/C55940-P96.minimised.mol

>  <scratch_subdir>  (687) 
/opt/xchem-fragalysis-2/maxwin/BulkDock/SCRATCH/511022/C55940-P96

>  <fragmenstein_runtime>  (687) 
52.07174849510193

>  <fragmenstein_outcome>  (687) 
too moved

>  <fragmenstein_mode>  (687) 
expansion

>  <fragmenstein_error>  (687) 


$$$$
C55940-P103
     RDKit          3D

 36 39  0  0  0  0  0  0  0  0999 V2000
    5.8443   -8.0137   27.3632 O   0  0  0  0  0  0  0  0  0  0  0  0
    5.4193   -7.0437   27.9246 C   0  0  0  0  0  0  0  0  0  0  0  0
    4.3962   -6.9190   28.9778 N   0  0  0  0  0  0  0  0  0  0  0  0
    3.5556   -7.8849   29.5639 C   0  0  0  0  0  0  0  0  0  0  0  0
    3.5040   -9.2600   29.2431 C   0  0  0  0  0  0  0  0  0  0  0  0
    2.4224   -9.8898   29.7278 N   0  0  0  0  0  0  0  0  0  0  0  0
    1.8577   -9.0027   30.5641 N   0  0  0  0  0  0  0  0  0  0  0  0
    0.6954   -9.3840   31.3866 C   0  0  0  0  0  0  0  0  0  0  0  0
    0.8781  -10.5865   32.3473 C   0  0  0  0  0  0  0  0  0  0  0  0
   -0.4536  -11.3529   32.3988 C   0  0  0  0  0  0  0  0  0  0  0  0
   -1.4442  -10.5145   31.6054 C   0  0  0  0  0  0  0  0  0  0  0  0
   -0.5884   -9.7254   30.6127 C   0  0  0  0  0  0  0  0  0  0  0  0
    2.4978   -7.7539   30.4590 C   0  0  0  0  0  0  0  0  0  0  0  0
    5.9536   -5.7491   27.3862 C   0  0  0  0  0  0  0  0  0  0  0  0
    5.7964   -4.4096   27.7559 C   0  0  0  0  0  0  0  0  0  0  0  0
    6.4717   -3.5134   26.9358 N   0  0  0  0  0  0  0  0  0  0  0  0
    7.0537   -4.2862   26.0689 C   0  0  0  0  0  0  0  0  0  0  0  0
    8.0935   -3.9954   24.7000 S   0  0  0  0  0  0  0  0  0  0  0  0
    8.1033   -5.7372   24.4097 C   0  0  0  0  0  0  0  0  0  0  0  0
    7.3723   -6.4332   25.3048 C   0  0  0  0  0  0  0  0  0  0  0  0
    6.7821   -5.6164   26.2535 N   0  0  0  0  0  0  0  0  0  0  0  0
    4.3458   -5.9571   29.2779 H   0  0  0  0  0  0  0  0  0  0  0  0
    4.1832   -9.8191   28.6168 H   0  0  0  0  0  0  0  0  0  0  0  0
    0.4879   -8.4994   32.0050 H   0  0  0  0  0  0  0  0  0  0  0  0
    1.6984  -11.2435   32.0504 H   0  0  0  0  0  0  0  0  0  0  0  0
    1.1365  -10.2159   33.3468 H   0  0  0  0  0  0  0  0  0  0  0  0
   -0.7916  -11.5018   33.4295 H   0  0  0  0  0  0  0  0  0  0  0  0
   -0.3301  -12.3453   31.9589 H   0  0  0  0  0  0  0  0  0  0  0  0
   -2.2160  -11.1150   31.1172 H   0  0  0  0  0  0  0  0  0  0  0  0
   -1.9507   -9.8142   32.2809 H   0  0  0  0  0  0  0  0  0  0  0  0
   -1.1039   -8.8190   30.2771 H   0  0  0  0  0  0  0  0  0  0  0  0
   -0.3550  -10.3008   29.7177 H   0  0  0  0  0  0  0  0  0  0  0  0
    2.1036   -6.9063   30.9991 H   0  0  0  0  0  0  0  0  0  0  0  0
    5.2213   -4.0234   28.5886 H   0  0  0  0  0  0  0  0  0  0  0  0
    8.6498   -6.1723   23.5838 H   0  0  0  0  0  0  0  0  0  0  0  0
    7.2239   -7.5033   25.3222 H   0  0  0  0  0  0  0  0  0  0  0  0
  1  2  2  0
  2  3  1  0
  3  4  1  0
  4  5  1  0
  5  6  2  0
  6  7  1  0
  7  8  1  0
  8  9  1  0
  9 10  1  0
 10 11  1  0
 11 12  1  0
  7 13  1  0
  2 14  1  0
 14 15  2  0
 15 16  1  0
 16 17  2  0
 17 18  1  0
 18 19  1  0
 19 20  2  0
 20 21  1  0
 13  4  2  0
 21 14  1  0
 12  8  1  0
 21 17  1  0
  3 22  1  0
  5 23  1  0
  8 24  1  0
  9 25  1  0
  9 26  1  0
 10 27  1  0
 10 28  1  0
 11 29  1  0
 11 30  1  0
 12 31  1  0
 12 32  1  0
 13 33  1  0
 15 34  1  0
 19 35  1  0
 20 36  1  0
M  END
>  <Energy>  (688) 
20.271911297143394

>  <compound_id>  (688) 
55940

>  <target_id>  (688) 
1

>  <reference_id>  (688) 
103

>  <inspiration_ids>  (688) 
[96, 103]

>  <energy_score>  (688) 
-45.921574591434876

>  <distance_score>  (688) 
15.474313592837138

>  <path>  (688) 
/opt/xchem-fragalysis-2/maxwin/BulkDock/SCRATCH/511022/C55940-P103/C55940-P103.minimised.mol

>  <scratch_subdir>  (688) 
/opt/xchem-fragalysis-2/maxwin/BulkDock/SCRATCH/511022/C55940-P103

>  <fragmenstein_runtime>  (688) 
54.401371479034424

>  <fragmenstein_outcome>  (688) 
too moved

>  <fragmenstein_mode>  (688) 
expansion

>  <fragmenstein_error>  (688) 


$$$$
C55941-P96
     RDKit          3D

 39 42  0  0  0  0  0  0  0  0999 V2000
    8.8488  -16.2050   18.0322 O   0  0  0  0  0  0  0  0  0  0  0  0
    8.1988  -15.5719   17.2494 C   0  0  0  0  0  0  0  0  0  0  0  0
    8.5477  -14.3923   16.4564 N   0  0  0  0  0  0  0  0  0  0  0  0
    9.7158  -13.5963   16.4486 C   0  0  0  0  0  0  0  0  0  0  0  0
   10.6906  -13.5232   17.4396 C   0  0  0  0  0  0  0  0  0  0  0  0
   11.5986  -12.5100   17.2354 N   0  0  0  0  0  0  0  0  0  0  0  0
   11.2668  -11.9787   16.0846 C   0  0  0  0  0  0  0  0  0  0  0  0
   11.8871  -10.9231   15.3559 C   0  0  0  0  0  0  0  0  0  0  0  0
   11.3775  -10.5478   14.1718 C   0  0  0  0  0  0  0  0  0  0  0  0
   10.1836  -11.1663   13.6334 C   0  0  0  0  0  0  0  0  0  0  0  0
    9.6073  -12.1815   14.3031 C   0  0  0  0  0  0  0  0  0  0  0  0
   10.1247  -12.5931   15.5395 N   0  0  0  0  0  0  0  0  0  0  0  0
    6.7455  -16.0277   17.1608 C   0  0  0  0  0  0  0  0  0  0  0  0
    6.1434  -17.0629   17.9770 C   0  0  0  0  0  0  0  0  0  0  0  0
    4.8166  -17.1837   17.8422 N   0  0  0  0  0  0  0  0  0  0  0  0
    4.5221  -16.2537   16.9105 N   0  0  0  0  0  0  0  0  0  0  0  0
    3.1560  -16.1723   16.4109 C   0  0  0  0  0  0  0  0  0  0  0  0
    2.8914  -17.2594   15.3516 C   0  0  0  0  0  0  0  0  0  0  0  0
    2.1142  -16.5697   14.2390 C   0  0  0  0  0  0  0  0  0  0  0  0
    2.6511  -15.1505   14.2604 C   0  0  0  0  0  0  0  0  0  0  0  0
    2.7458  -14.8432   15.7478 C   0  0  0  0  0  0  0  0  0  0  0  0
    5.6334  -15.5473   16.4876 C   0  0  0  0  0  0  0  0  0  0  0  0
    7.7798  -14.1712   15.8380 H   0  0  0  0  0  0  0  0  0  0  0  0
   10.7388  -14.1289   18.3375 H   0  0  0  0  0  0  0  0  0  0  0  0
   12.7963  -10.4803   15.7478 H   0  0  0  0  0  0  0  0  0  0  0  0
   11.8819   -9.8084   13.5598 H   0  0  0  0  0  0  0  0  0  0  0  0
    9.8121  -10.8259   12.6717 H   0  0  0  0  0  0  0  0  0  0  0  0
    8.7466  -12.7133   13.9197 H   0  0  0  0  0  0  0  0  0  0  0  0
    6.6568  -17.6953   18.6921 H   0  0  0  0  0  0  0  0  0  0  0  0
    2.5108  -16.3337   17.2846 H   0  0  0  0  0  0  0  0  0  0  0  0
    2.3284  -18.1012   15.7685 H   0  0  0  0  0  0  0  0  0  0  0  0
    3.8282  -17.6629   14.9471 H   0  0  0  0  0  0  0  0  0  0  0  0
    1.0421  -16.5739   14.4692 H   0  0  0  0  0  0  0  0  0  0  0  0
    2.2571  -17.0562   13.2700 H   0  0  0  0  0  0  0  0  0  0  0  0
    3.6443  -15.1100   13.7983 H   0  0  0  0  0  0  0  0  0  0  0  0
    1.9969  -14.4502   13.7334 H   0  0  0  0  0  0  0  0  0  0  0  0
    3.4114  -13.9998   15.9469 H   0  0  0  0  0  0  0  0  0  0  0  0
    1.7505  -14.5579   16.1128 H   0  0  0  0  0  0  0  0  0  0  0  0
    5.5284  -14.7521   15.7658 H   0  0  0  0  0  0  0  0  0  0  0  0
  1  2  2  0
  2  3  1  0
  3  4  1  0
  4  5  2  0
  5  6  1  0
  6  7  2  0
  7  8  1  0
  8  9  2  0
  9 10  1  0
 10 11  2  0
 11 12  1  0
  2 13  1  0
 13 14  1  0
 14 15  2  0
 15 16  1  0
 16 17  1  0
 17 18  1  0
 18 19  1  0
 19 20  1  0
 20 21  1  0
 16 22  1  0
 12  4  1  0
 22 13  2  0
 12  7  1  0
 21 17  1  0
  3 23  1  0
  5 24  1  0
  8 25  1  0
  9 26  1  0
 10 27  1  0
 11 28  1  0
 14 29  1  0
 17 30  1  0
 18 31  1  0
 18 32  1  0
 19 33  1  0
 19 34  1  0
 20 35  1  0
 20 36  1  0
 21 37  1  0
 21 38  1  0
 22 39  1  0
M  END
>  <Energy>  (689) 
75.0983025221297

>  <compound_id>  (689) 
55941

>  <target_id>  (689) 
1

>  <reference_id>  (689) 
96

>  <inspiration_ids>  (689) 
[96, 103]

>  <energy_score>  (689) 
-32.51745226338261

>  <distance_score>  (689) 
16.843462485895365

>  <path>  (689) 
/opt/xchem-fragalysis-2/maxwin/BulkDock/SCRATCH/511022/C55941-P96/C55941-P96.minimised.mol

>  <scratch_subdir>  (689) 
/opt/xchem-fragalysis-2/maxwin/BulkDock/SCRATCH/511022/C55941-P96

>  <fragmenstein_runtime>  (689) 
26.733504056930542

>  <fragmenstein_outcome>  (689) 
too moved

>  <fragmenstein_mode>  (689) 
expansion

>  <fragmenstein_error>  (689) 


$$$$
C55941-P103
     RDKit          3D

 39 42  0  0  0  0  0  0  0  0999 V2000
    4.4095  -11.2048   21.9110 O   0  0  0  0  0  0  0  0  0  0  0  0
    4.5564  -12.1023   21.1405 C   0  0  0  0  0  0  0  0  0  0  0  0
    5.7172  -11.8942   19.7240 N   0  0  0  0  0  0  0  0  0  0  0  0
    6.6768  -10.4353   19.1273 C   0  0  0  0  0  0  0  0  0  0  0  0
    5.2324   -9.2492   18.5879 C   0  0  0  0  0  0  0  0  0  0  0  0
    5.9947   -7.4999   18.7505 N   0  0  0  0  0  0  0  0  0  0  0  0
    7.5536   -7.4262   19.3356 C   0  0  0  0  0  0  0  0  0  0  0  0
    9.3953   -6.3820   19.2686 C   0  0  0  0  0  0  0  0  0  0  0  0
   10.3568   -6.0099   20.3042 C   0  0  0  0  0  0  0  0  0  0  0  0
   10.6142   -7.6857   20.7639 C   0  0  0  0  0  0  0  0  0  0  0  0
    9.6713   -8.4720   20.1015 C   0  0  0  0  0  0  0  0  0  0  0  0
    8.2552   -9.2159   19.0609 N   0  0  0  0  0  0  0  0  0  0  0  0
    3.3396  -13.4933   21.5854 C   0  0  0  0  0  0  0  0  0  0  0  0
    2.3957  -15.1073   21.3847 C   0  0  0  0  0  0  0  0  0  0  0  0
    2.1669  -15.8379   22.4786 N   0  0  0  0  0  0  0  0  0  0  0  0
    2.5592  -15.0857   23.5199 N   0  0  0  0  0  0  0  0  0  0  0  0
    2.4483  -15.7145   24.8226 C   0  0  0  0  0  0  0  0  0  0  0  0
    1.3761  -15.1510   25.7455 C   0  0  0  0  0  0  0  0  0  0  0  0
    1.7249  -15.7860   27.0828 C   0  0  0  0  0  0  0  0  0  0  0  0
    3.2505  -15.7901   27.1241 C   0  0  0  0  0  0  0  0  0  0  0  0
    3.7243  -15.7291   25.6695 C   0  0  0  0  0  0  0  0  0  0  0  0
    3.0181  -13.7940   23.2356 C   0  0  0  0  0  0  0  0  0  0  0  0
    5.7802  -12.7529   19.2413 H   0  0  0  0  0  0  0  0  0  0  0  0
    4.2146   -9.2224   18.2478 H   0  0  0  0  0  0  0  0  0  0  0  0
   10.0801   -5.8638   18.5736 H   0  0  0  0  0  0  0  0  0  0  0  0
   11.3255   -5.4881   20.2753 H   0  0  0  0  0  0  0  0  0  0  0  0
   11.3996   -7.9487   21.4810 H   0  0  0  0  0  0  0  0  0  0  0  0
    9.8795   -8.9462   21.1080 H   0  0  0  0  0  0  0  0  0  0  0  0
    2.1442  -15.5390   20.4174 H   0  0  0  0  0  0  0  0  0  0  0  0
    2.1891  -16.7679   24.6329 H   0  0  0  0  0  0  0  0  0  0  0  0
    0.3646  -15.4096   25.4171 H   0  0  0  0  0  0  0  0  0  0  0  0
    1.4365  -14.0648   25.8217 H   0  0  0  0  0  0  0  0  0  0  0  0
    1.2892  -15.2440   27.9273 H   0  0  0  0  0  0  0  0  0  0  0  0
    1.3510  -16.8164   27.1160 H   0  0  0  0  0  0  0  0  0  0  0  0
    3.6303  -16.6798   27.6368 H   0  0  0  0  0  0  0  0  0  0  0  0
    3.6195  -14.9170   27.6735 H   0  0  0  0  0  0  0  0  0  0  0  0
    4.3501  -16.5930   25.4181 H   0  0  0  0  0  0  0  0  0  0  0  0
    4.3429  -14.8409   25.5197 H   0  0  0  0  0  0  0  0  0  0  0  0
    3.1460  -13.0802   24.0117 H   0  0  0  0  0  0  0  0  0  0  0  0
  1  2  2  0
  2  3  1  0
  3  4  1  0
  4  5  2  0
  5  6  1  0
  6  7  2  0
  7  8  1  0
  8  9  2  0
  9 10  1  0
 10 11  2  0
 11 12  1  0
  2 13  1  0
 13 14  1  0
 14 15  2  0
 15 16  1  0
 16 17  1  0
 17 18  1  0
 18 19  1  0
 19 20  1  0
 20 21  1  0
 16 22  1  0
 12  4  1  0
 22 13  2  0
 12  7  1  0
 21 17  1  0
  3 23  1  0
  5 24  1  0
  8 25  1  0
  9 26  1  0
 10 27  1  0
 11 28  1  0
 14 29  1  0
 17 30  1  0
 18 31  1  0
 18 32  1  0
 19 33  1  0
 19 34  1  0
 20 35  1  0
 20 36  1  0
 21 37  1  0
 21 38  1  0
 22 39  1  0
M  END
>  <Energy>  (690) 
1396.0854803018456

>  <compound_id>  (690) 
55941

>  <target_id>  (690) 
1

>  <reference_id>  (690) 
103

>  <inspiration_ids>  (690) 
[96, 103]

>  <energy_score>  (690) 
1288.4697255163592

>  <distance_score>  (690) 
13.632859295098644

>  <path>  (690) 
/opt/xchem-fragalysis-2/maxwin/BulkDock/SCRATCH/511022/C55941-P103/C55941-P103.minimised.mol

>  <scratch_subdir>  (690) 
/opt/xchem-fragalysis-2/maxwin/BulkDock/SCRATCH/511022/C55941-P103

>  <fragmenstein_runtime>  (690) 
22.696361303329468

>  <fragmenstein_outcome>  (690) 
too moved

>  <fragmenstein_mode>  (690) 
expansion

>  <fragmenstein_error>  (690) 


$$$$
C55943-P96
     RDKit          3D

 40 43  0  0  0  0  0  0  0  0999 V2000
    8.1865   -6.6434   22.8742 C   0  0  0  0  0  0  0  0  0  0  0  0
    7.5646   -6.7268   24.0641 C   0  0  0  0  0  0  0  0  0  0  0  0
    6.8602   -7.9037   24.1951 N   0  0  0  0  0  0  0  0  0  0  0  0
    6.0605   -8.4798   25.1413 C   0  0  0  0  0  0  0  0  0  0  0  0
    5.6412   -9.7105   24.6058 C   0  0  0  0  0  0  0  0  0  0  0  0
    4.5108  -10.7943   25.3861 C   0  0  0  0  0  0  0  0  0  0  0  0
    3.4116  -12.2172   25.1655 N   0  0  0  0  0  0  0  0  0  0  0  0
    3.1032  -13.8009   26.0412 C   0  0  0  0  0  0  0  0  0  0  0  0
    1.4391  -14.6423   26.3340 C   0  0  0  0  0  0  0  0  0  0  0  0
    0.4370  -14.5677   27.2604 C   0  0  0  0  0  0  0  0  0  0  0  0
   -1.0388  -15.2559   26.5147 C   0  0  0  0  0  0  0  0  0  0  0  0
   -0.6646  -16.3753   25.9728 N   0  0  0  0  0  0  0  0  0  0  0  0
   -1.5491  -17.5480   26.7005 C   0  0  0  0  0  0  0  0  0  0  0  0
   -2.5428  -18.7051   26.2656 C   0  0  0  0  0  0  0  0  0  0  0  0
   -3.5162  -18.7948   27.4521 C   0  0  0  0  0  0  0  0  0  0  0  0
   -2.6189  -18.5989   28.6798 C   0  0  0  0  0  0  0  0  0  0  0  0
   -1.2519  -18.1160   28.1400 C   0  0  0  0  0  0  0  0  0  0  0  0
    0.9600  -15.8985   25.9260 N   0  0  0  0  0  0  0  0  0  0  0  0
    6.1987   -9.8486   23.3137 N   0  0  0  0  0  0  0  0  0  0  0  0
    6.9139   -8.7582   23.1377 C   0  0  0  0  0  0  0  0  0  0  0  0
    7.8923   -8.0734   21.8588 S   0  0  0  0  0  0  0  0  0  0  0  0
    8.8102   -5.8222   22.5456 H   0  0  0  0  0  0  0  0  0  0  0  0
    7.5807   -5.9995   24.8611 H   0  0  0  0  0  0  0  0  0  0  0  0
    5.8428   -7.9976   26.0831 H   0  0  0  0  0  0  0  0  0  0  0  0
    4.4286  -10.9261   24.2982 H   0  0  0  0  0  0  0  0  0  0  0  0
    4.0682  -10.0839   26.0673 H   0  0  0  0  0  0  0  0  0  0  0  0
    2.5088  -11.7778   24.9749 H   0  0  0  0  0  0  0  0  0  0  0  0
    3.7890  -14.1328   26.8051 H   0  0  0  0  0  0  0  0  0  0  0  0
    3.2867  -14.5060   25.2414 H   0  0  0  0  0  0  0  0  0  0  0  0
    0.4418  -13.9703   28.1671 H   0  0  0  0  0  0  0  0  0  0  0  0
   -2.0571  -14.8358   26.4671 H   0  0  0  0  0  0  0  0  0  0  0  0
   -2.3944  -16.8713   26.8295 H   0  0  0  0  0  0  0  0  0  0  0  0
   -2.1531  -19.7144   26.3396 H   0  0  0  0  0  0  0  0  0  0  0  0
   -2.9826  -18.6445   25.2763 H   0  0  0  0  0  0  0  0  0  0  0  0
   -4.0204  -19.7636   27.4497 H   0  0  0  0  0  0  0  0  0  0  0  0
   -4.2785  -18.0116   27.4233 H   0  0  0  0  0  0  0  0  0  0  0  0
   -3.0573  -17.8532   29.3516 H   0  0  0  0  0  0  0  0  0  0  0  0
   -2.4959  -19.5281   29.2454 H   0  0  0  0  0  0  0  0  0  0  0  0
   -0.7604  -17.4571   28.8531 H   0  0  0  0  0  0  0  0  0  0  0  0
   -0.6126  -19.0020   28.0493 H   0  0  0  0  0  0  0  0  0  0  0  0
  1  2  2  0
  2  3  1  0
  3  4  1  0
  4  5  2  0
  5  6  1  0
  6  7  1  0
  7  8  1  0
  8  9  1  0
  9 10  1  0
 10 11  2  0
 11 12  1  0
 12 13  1  0
 13 14  1  0
 14 15  1  0
 15 16  1  0
 16 17  1  0
 12 18  1  0
  5 19  1  0
 19 20  2  0
 20 21  1  0
 21  1  1  0
 20  3  1  0
 18  9  2  0
 17 13  1  0
  1 22  1  0
  2 23  1  0
  4 24  1  0
  6 25  1  0
  6 26  1  0
  7 27  1  0
  8 28  1  0
  8 29  1  0
 10 30  1  0
 11 31  1  0
 13 32  1  0
 14 33  1  0
 14 34  1  0
 15 35  1  0
 15 36  1  0
 16 37  1  0
 16 38  1  0
 17 39  1  0
 17 40  1  0
M  END
>  <Energy>  (691) 
554.79742611083725

>  <compound_id>  (691) 
55943

>  <target_id>  (691) 
1

>  <reference_id>  (691) 
96

>  <inspiration_ids>  (691) 
[96, 103]

>  <energy_score>  (691) 
450.5689477650948

>  <distance_score>  (691) 
13.503083162959308

>  <path>  (691) 
/opt/xchem-fragalysis-2/maxwin/BulkDock/SCRATCH/511022/C55943-P96/C55943-P96.minimised.mol

>  <scratch_subdir>  (691) 
/opt/xchem-fragalysis-2/maxwin/BulkDock/SCRATCH/511022/C55943-P96

>  <fragmenstein_runtime>  (691) 
21.24286460876465

>  <fragmenstein_outcome>  (691) 
too moved

>  <fragmenstein_mode>  (691) 
expansion

>  <fragmenstein_error>  (691) 


$$$$
C55943-P103
     RDKit          3D

 40 43  0  0  0  0  0  0  0  0999 V2000
    7.1365    1.2802   22.3752 C   0  0  0  0  0  0  0  0  0  0  0  0
    6.1395    0.6436   21.7356 C   0  0  0  0  0  0  0  0  0  0  0  0
    6.1297   -0.7019   22.0221 N   0  0  0  0  0  0  0  0  0  0  0  0
    5.3906   -1.7918   21.6781 C   0  0  0  0  0  0  0  0  0  0  0  0
    5.9908   -2.8692   22.3362 C   0  0  0  0  0  0  0  0  0  0  0  0
    5.6302   -4.3336   22.1909 C   0  0  0  0  0  0  0  0  0  0  0  0
    5.0054   -5.0076   23.3632 N   0  0  0  0  0  0  0  0  0  0  0  0
    3.7395   -4.4240   23.8718 C   0  0  0  0  0  0  0  0  0  0  0  0
    2.6419   -5.4606   24.3848 C   0  0  0  0  0  0  0  0  0  0  0  0
    1.7340   -6.1404   23.5329 C   0  0  0  0  0  0  0  0  0  0  0  0
    0.7931   -6.7413   24.3396 C   0  0  0  0  0  0  0  0  0  0  0  0
    1.1297   -6.5034   25.6526 N   0  0  0  0  0  0  0  0  0  0  0  0
    0.2712   -6.7516   26.8472 C   0  0  0  0  0  0  0  0  0  0  0  0
   -1.1975   -7.2576   26.6348 C   0  0  0  0  0  0  0  0  0  0  0  0
   -1.5941   -8.1278   27.8434 C   0  0  0  0  0  0  0  0  0  0  0  0
   -0.4720   -7.9561   28.8473 C   0  0  0  0  0  0  0  0  0  0  0  0
    0.7639   -7.6722   27.9883 C   0  0  0  0  0  0  0  0  0  0  0  0
    2.2585   -5.6582   25.6871 N   0  0  0  0  0  0  0  0  0  0  0  0
    7.1169   -2.4248   23.0409 N   0  0  0  0  0  0  0  0  0  0  0  0
    7.0979   -1.1282   22.8749 C   0  0  0  0  0  0  0  0  0  0  0  0
    8.1009    0.1975   23.3929 S   0  0  0  0  0  0  0  0  0  0  0  0
    7.3516    2.3389   22.3156 H   0  0  0  0  0  0  0  0  0  0  0  0
    5.4112    1.0789   21.0726 H   0  0  0  0  0  0  0  0  0  0  0  0
    4.5509   -1.7420   21.0014 H   0  0  0  0  0  0  0  0  0  0  0  0
    6.5516   -4.8772   21.9576 H   0  0  0  0  0  0  0  0  0  0  0  0
    4.9686   -4.4586   21.3245 H   0  0  0  0  0  0  0  0  0  0  0  0
    4.8201   -5.9715   23.0935 H   0  0  0  0  0  0  0  0  0  0  0  0
    3.2455   -3.8419   23.0833 H   0  0  0  0  0  0  0  0  0  0  0  0
    3.9674   -3.7431   24.6996 H   0  0  0  0  0  0  0  0  0  0  0  0
    1.7131   -6.1205   22.4531 H   0  0  0  0  0  0  0  0  0  0  0  0
   -0.0899   -7.2928   24.0647 H   0  0  0  0  0  0  0  0  0  0  0  0
    0.1795   -5.7425   27.2784 H   0  0  0  0  0  0  0  0  0  0  0  0
   -1.8637   -6.3882   26.5694 H   0  0  0  0  0  0  0  0  0  0  0  0
   -1.3443   -7.8127   25.7114 H   0  0  0  0  0  0  0  0  0  0  0  0
   -1.6794   -9.1789   27.5626 H   0  0  0  0  0  0  0  0  0  0  0  0
   -2.5611   -7.8258   28.2581 H   0  0  0  0  0  0  0  0  0  0  0  0
   -0.6765   -7.0945   29.4936 H   0  0  0  0  0  0  0  0  0  0  0  0
   -0.3418   -8.8353   29.4850 H   0  0  0  0  0  0  0  0  0  0  0  0
    1.1480   -8.6187   27.6324 H   0  0  0  0  0  0  0  0  0  0  0  0
    1.5581   -7.1947   28.5715 H   0  0  0  0  0  0  0  0  0  0  0  0
  1  2  2  0
  2  3  1  0
  3  4  1  0
  4  5  2  0
  5  6  1  0
  6  7  1  0
  7  8  1  0
  8  9  1  0
  9 10  1  0
 10 11  2  0
 11 12  1  0
 12 13  1  0
 13 14  1  0
 14 15  1  0
 15 16  1  0
 16 17  1  0
 12 18  1  0
  5 19  1  0
 19 20  2  0
 20 21  1  0
 21  1  1  0
 20  3  1  0
 18  9  2  0
 17 13  1  0
  1 22  1  0
  2 23  1  0
  4 24  1  0
  6 25  1  0
  6 26  1  0
  7 27  1  0
  8 28  1  0
  8 29  1  0
 10 30  1  0
 11 31  1  0
 13 32  1  0
 14 33  1  0
 14 34  1  0
 15 35  1  0
 15 36  1  0
 16 37  1  0
 16 38  1  0
 17 39  1  0
 17 40  1  0
M  END
>  <Energy>  (692) 
87.567454504684306

>  <compound_id>  (692) 
55943

>  <target_id>  (692) 
1

>  <reference_id>  (692) 
103

>  <inspiration_ids>  (692) 
[96, 103]

>  <energy_score>  (692) 
-16.66102384106796

>  <distance_score>  (692) 
14.58951719440261

>  <path>  (692) 
/opt/xchem-fragalysis-2/maxwin/BulkDock/SCRATCH/511022/C55943-P103/C55943-P103.minimised.mol

>  <scratch_subdir>  (692) 
/opt/xchem-fragalysis-2/maxwin/BulkDock/SCRATCH/511022/C55943-P103

>  <fragmenstein_runtime>  (692) 
38.08146810531616

>  <fragmenstein_outcome>  (692) 
too moved

>  <fragmenstein_mode>  (692) 
expansion

>  <fragmenstein_error>  (692) 


$$$$
C55945-P96
     RDKit          3D

 46 49  0  0  0  0  0  0  0  0999 V2000
    7.8225   -8.2692   23.4071 C   0  0  0  0  0  0  0  0  0  0  0  0
    7.6986   -7.7516   24.7602 C   0  0  0  0  0  0  0  0  0  0  0  0
    6.8628   -8.3611   25.6261 C   0  0  0  0  0  0  0  0  0  0  0  0
    6.1180   -9.4752   25.2140 N   0  0  0  0  0  0  0  0  0  0  0  0
    5.1276  -10.2259   25.8729 C   0  0  0  0  0  0  0  0  0  0  0  0
    4.5645  -11.0915   24.9219 C   0  0  0  0  0  0  0  0  0  0  0  0
    2.9372  -11.9442   24.7836 C   0  0  0  0  0  0  0  0  0  0  0  0
    0.9836  -11.6084   24.2179 C   0  0  0  0  0  0  0  0  0  0  0  0
   -0.3312  -12.6410   23.1236 N   0  0  0  0  0  0  0  0  0  0  0  0
   -2.1024  -12.6433   23.8778 C   0  0  0  0  0  0  0  0  0  0  0  0
   -3.3340  -13.8690   23.9971 C   0  0  0  0  0  0  0  0  0  0  0  0
   -3.8346  -14.3630   25.2634 C   0  0  0  0  0  0  0  0  0  0  0  0
   -4.8017  -15.2895   24.9710 C   0  0  0  0  0  0  0  0  0  0  0  0
   -4.9048  -15.2927   23.6112 N   0  0  0  0  0  0  0  0  0  0  0  0
   -5.8903  -16.0507   22.8562 C   0  0  0  0  0  0  0  0  0  0  0  0
   -5.3070  -17.0159   21.8148 C   0  0  0  0  0  0  0  0  0  0  0  0
   -5.7800  -16.4854   20.4673 C   0  0  0  0  0  0  0  0  0  0  0  0
   -7.1328  -15.8706   20.7826 C   0  0  0  0  0  0  0  0  0  0  0  0
   -6.8975  -15.1629   22.1091 C   0  0  0  0  0  0  0  0  0  0  0  0
   -4.0251  -14.4436   22.9979 N   0  0  0  0  0  0  0  0  0  0  0  0
    5.3721  -10.9877   23.7785 N   0  0  0  0  0  0  0  0  0  0  0  0
    6.2196   -9.9877   23.9336 C   0  0  0  0  0  0  0  0  0  0  0  0
    7.1194   -9.3501   23.0187 C   0  0  0  0  0  0  0  0  0  0  0  0
    8.5071   -7.7743   22.7263 H   0  0  0  0  0  0  0  0  0  0  0  0
    8.2890   -6.8877   25.0468 H   0  0  0  0  0  0  0  0  0  0  0  0
    6.7226   -8.0270   26.6458 H   0  0  0  0  0  0  0  0  0  0  0  0
    4.8237   -9.9642   26.8751 H   0  0  0  0  0  0  0  0  0  0  0  0
    3.3973  -12.5575   23.9876 H   0  0  0  0  0  0  0  0  0  0  0  0
    2.9246  -12.3539   25.8083 H   0  0  0  0  0  0  0  0  0  0  0  0
    0.5596  -10.6037   24.3033 H   0  0  0  0  0  0  0  0  0  0  0  0
    0.6922  -12.0231   25.1519 H   0  0  0  0  0  0  0  0  0  0  0  0
   -0.4764  -12.1201   22.2998 H   0  0  0  0  0  0  0  0  0  0  0  0
   -2.5667  -11.6775   23.7269 H   0  0  0  0  0  0  0  0  0  0  0  0
   -2.0452  -12.6883   24.9739 H   0  0  0  0  0  0  0  0  0  0  0  0
   -3.4970  -14.0747   26.2501 H   0  0  0  0  0  0  0  0  0  0  0  0
   -5.4246  -15.9074   25.6025 H   0  0  0  0  0  0  0  0  0  0  0  0
   -6.4382  -16.6512   23.5941 H   0  0  0  0  0  0  0  0  0  0  0  0
   -5.7383  -18.0130   21.9726 H   0  0  0  0  0  0  0  0  0  0  0  0
   -4.2216  -17.1303   21.8649 H   0  0  0  0  0  0  0  0  0  0  0  0
   -5.8473  -17.2743   19.7128 H   0  0  0  0  0  0  0  0  0  0  0  0
   -5.0965  -15.7149   20.0956 H   0  0  0  0  0  0  0  0  0  0  0  0
   -7.8885  -16.6561   20.9019 H   0  0  0  0  0  0  0  0  0  0  0  0
   -7.4721  -15.1848   20.0011 H   0  0  0  0  0  0  0  0  0  0  0  0
   -7.8297  -15.0471   22.6722 H   0  0  0  0  0  0  0  0  0  0  0  0
   -6.5036  -14.1570   21.9301 H   0  0  0  0  0  0  0  0  0  0  0  0
    7.2091   -9.7537   22.0180 H   0  0  0  0  0  0  0  0  0  0  0  0
  1  2  1  0
  2  3  2  0
  3  4  1  0
  4  5  1  0
  5  6  2  0
  6  7  1  0
  7  8  1  0
  8  9  1  0
  9 10  1  0
 10 11  1  0
 11 12  1  0
 12 13  2  0
 13 14  1  0
 14 15  1  0
 15 16  1  0
 16 17  1  0
 17 18  1  0
 18 19  1  0
 14 20  1  0
  6 21  1  0
 21 22  2  0
 22 23  1  0
 23  1  2  0
 22  4  1  0
 20 11  2  0
 19 15  1  0
  1 24  1  0
  2 25  1  0
  3 26  1  0
  5 27  1  0
  7 28  1  0
  7 29  1  0
  8 30  1  0
  8 31  1  0
  9 32  1  0
 10 33  1  0
 10 34  1  0
 12 35  1  0
 13 36  1  0
 15 37  1  0
 16 38  1  0
 16 39  1  0
 17 40  1  0
 17 41  1  0
 18 42  1  0
 18 43  1  0
 19 44  1  0
 19 45  1  0
 23 46  1  0
M  END
>  <Energy>  (693) 
375.79408879370385

>  <compound_id>  (693) 
55945

>  <target_id>  (693) 
1

>  <reference_id>  (693) 
96

>  <inspiration_ids>  (693) 
[96, 103]

>  <energy_score>  (693) 
278.4396945759073

>  <distance_score>  (693) 
14.400308113761566

>  <path>  (693) 
/opt/xchem-fragalysis-2/maxwin/BulkDock/SCRATCH/511022/C55945-P96/C55945-P96.minimised.mol

>  <scratch_subdir>  (693) 
/opt/xchem-fragalysis-2/maxwin/BulkDock/SCRATCH/511022/C55945-P96

>  <fragmenstein_runtime>  (693) 
27.666130304336548

>  <fragmenstein_outcome>  (693) 
too moved

>  <fragmenstein_mode>  (693) 
expansion

>  <fragmenstein_error>  (693) 


$$$$
C55945-P103
     RDKit          3D

 46 49  0  0  0  0  0  0  0  0999 V2000
    3.9996   -1.9417   13.0684 C   0  0  0  0  0  0  0  0  0  0  0  0
    3.9506   -2.7090   11.8321 C   0  0  0  0  0  0  0  0  0  0  0  0
    3.1827   -3.8137   11.7809 C   0  0  0  0  0  0  0  0  0  0  0  0
    2.4421   -4.1908   12.9060 N   0  0  0  0  0  0  0  0  0  0  0  0
    1.6250   -5.2936   13.1099 C   0  0  0  0  0  0  0  0  0  0  0  0
    1.1272   -5.1930   14.3939 C   0  0  0  0  0  0  0  0  0  0  0  0
    0.3235   -6.1091   15.3066 C   0  0  0  0  0  0  0  0  0  0  0  0
   -0.9167   -7.0660   15.0851 C   0  0  0  0  0  0  0  0  0  0  0  0
   -1.4333   -7.8200   16.3754 N   0  0  0  0  0  0  0  0  0  0  0  0
   -2.6519   -8.7517   16.2659 C   0  0  0  0  0  0  0  0  0  0  0  0
   -3.2066   -9.4560   17.5731 C   0  0  0  0  0  0  0  0  0  0  0  0
   -2.7846  -10.6545   18.2299 C   0  0  0  0  0  0  0  0  0  0  0  0
   -3.7097  -10.9385   19.2072 C   0  0  0  0  0  0  0  0  0  0  0  0
   -4.6042   -9.9144   19.1572 N   0  0  0  0  0  0  0  0  0  0  0  0
   -5.6908   -9.6953   20.1008 C   0  0  0  0  0  0  0  0  0  0  0  0
   -6.9137   -8.9774   19.5226 C   0  0  0  0  0  0  0  0  0  0  0  0
   -6.6894   -7.4854   19.7804 C   0  0  0  0  0  0  0  0  0  0  0  0
   -5.5087   -7.3788   20.7427 C   0  0  0  0  0  0  0  0  0  0  0  0
   -5.2728   -8.7914   21.2606 C   0  0  0  0  0  0  0  0  0  0  0  0
   -4.3667   -9.0516   18.1366 N   0  0  0  0  0  0  0  0  0  0  0  0
    1.6792   -4.0450   14.9883 N   0  0  0  0  0  0  0  0  0  0  0  0
    2.4486   -3.4658   14.0921 C   0  0  0  0  0  0  0  0  0  0  0  0
    3.2749   -2.3000   14.1482 C   0  0  0  0  0  0  0  0  0  0  0  0
    4.6628   -1.0857   13.0954 H   0  0  0  0  0  0  0  0  0  0  0  0
    4.5520   -2.3835   10.9897 H   0  0  0  0  0  0  0  0  0  0  0  0
    3.1104   -4.4446   10.9048 H   0  0  0  0  0  0  0  0  0  0  0  0
    1.5008   -6.0434   12.3429 H   0  0  0  0  0  0  0  0  0  0  0  0
    1.0870   -6.7550   15.7490 H   0  0  0  0  0  0  0  0  0  0  0  0
   -0.1038   -5.3777   15.9984 H   0  0  0  0  0  0  0  0  0  0  0  0
   -0.6579   -7.8278   14.3435 H   0  0  0  0  0  0  0  0  0  0  0  0
   -1.7564   -6.4821   14.6926 H   0  0  0  0  0  0  0  0  0  0  0  0
   -1.7000   -7.1069   17.0616 H   0  0  0  0  0  0  0  0  0  0  0  0
   -2.4159   -9.5325   15.5398 H   0  0  0  0  0  0  0  0  0  0  0  0
   -3.4721   -8.1553   15.8473 H   0  0  0  0  0  0  0  0  0  0  0  0
   -1.9132  -11.2435   18.0276 H   0  0  0  0  0  0  0  0  0  0  0  0
   -3.7750  -11.7287   19.9359 H   0  0  0  0  0  0  0  0  0  0  0  0
   -5.9790  -10.6888   20.4645 H   0  0  0  0  0  0  0  0  0  0  0  0
   -7.0898   -9.1904   18.4633 H   0  0  0  0  0  0  0  0  0  0  0  0
   -7.8103   -9.2954   20.0697 H   0  0  0  0  0  0  0  0  0  0  0  0
   -6.4727   -6.9511   18.8490 H   0  0  0  0  0  0  0  0  0  0  0  0
   -7.5902   -7.0340   20.2105 H   0  0  0  0  0  0  0  0  0  0  0  0
   -5.7036   -6.6732   21.5563 H   0  0  0  0  0  0  0  0  0  0  0  0
   -4.6232   -7.0199   20.2052 H   0  0  0  0  0  0  0  0  0  0  0  0
   -4.2368   -8.9398   21.5817 H   0  0  0  0  0  0  0  0  0  0  0  0
   -5.9241   -8.9748   22.1240 H   0  0  0  0  0  0  0  0  0  0  0  0
    3.3197   -1.7418   15.0757 H   0  0  0  0  0  0  0  0  0  0  0  0
  1  2  1  0
  2  3  2  0
  3  4  1  0
  4  5  1  0
  5  6  2  0
  6  7  1  0
  7  8  1  0
  8  9  1  0
  9 10  1  0
 10 11  1  0
 11 12  1  0
 12 13  2  0
 13 14  1  0
 14 15  1  0
 15 16  1  0
 16 17  1  0
 17 18  1  0
 18 19  1  0
 14 20  1  0
  6 21  1  0
 21 22  2  0
 22 23  1  0
 23  1  2  0
 22  4  1  0
 20 11  2  0
 19 15  1  0
  1 24  1  0
  2 25  1  0
  3 26  1  0
  5 27  1  0
  7 28  1  0
  7 29  1  0
  8 30  1  0
  8 31  1  0
  9 32  1  0
 10 33  1  0
 10 34  1  0
 12 35  1  0
 13 36  1  0
 15 37  1  0
 16 38  1  0
 16 39  1  0
 17 40  1  0
 17 41  1  0
 18 42  1  0
 18 43  1  0
 19 44  1  0
 19 45  1  0
 23 46  1  0
M  END
>  <Energy>  (694) 
98.743669983873232

>  <compound_id>  (694) 
55945

>  <target_id>  (694) 
1

>  <reference_id>  (694) 
103

>  <inspiration_ids>  (694) 
[96, 103]

>  <energy_score>  (694) 
1.3892757660719326

>  <distance_score>  (694) 
15.564244826211613

>  <path>  (694) 
/opt/xchem-fragalysis-2/maxwin/BulkDock/SCRATCH/511022/C55945-P103/C55945-P103.minimised.mol

>  <scratch_subdir>  (694) 
/opt/xchem-fragalysis-2/maxwin/BulkDock/SCRATCH/511022/C55945-P103

>  <fragmenstein_runtime>  (694) 
24.994837522506714

>  <fragmenstein_outcome>  (694) 
too moved

>  <fragmenstein_mode>  (694) 
expansion

>  <fragmenstein_error>  (694) 


$$$$
C55948-P96
     RDKit          3D

 39 42  0  0  0  0  0  0  0  0999 V2000
    1.6151  -12.3755   16.3765 O   0  0  0  0  0  0  0  0  0  0  0  0
    2.5217  -12.9504   16.9119 C   0  0  0  0  0  0  0  0  0  0  0  0
    3.9746  -12.8508   16.7030 N   0  0  0  0  0  0  0  0  0  0  0  0
    4.7293  -11.9899   15.8839 C   0  0  0  0  0  0  0  0  0  0  0  0
    4.2812  -11.0412   14.9732 C   0  0  0  0  0  0  0  0  0  0  0  0
    5.2963  -10.3612   14.3436 N   0  0  0  0  0  0  0  0  0  0  0  0
    6.3973  -10.8621   14.8423 C   0  0  0  0  0  0  0  0  0  0  0  0
    7.7546  -10.5920   14.5002 C   0  0  0  0  0  0  0  0  0  0  0  0
    8.7281  -11.3760   14.9891 C   0  0  0  0  0  0  0  0  0  0  0  0
    8.4190  -12.4572   15.9109 C   0  0  0  0  0  0  0  0  0  0  0  0
    7.1477  -12.6617   16.3018 C   0  0  0  0  0  0  0  0  0  0  0  0
    6.1236  -11.8833   15.7650 N   0  0  0  0  0  0  0  0  0  0  0  0
    2.0795  -13.9315   18.0241 C   0  0  0  0  0  0  0  0  0  0  0  0
    2.6575  -15.1506   18.5009 C   0  0  0  0  0  0  0  0  0  0  0  0
    1.7878  -15.6678   19.4428 C   0  0  0  0  0  0  0  0  0  0  0  0
    0.7497  -14.7890   19.5113 N   0  0  0  0  0  0  0  0  0  0  0  0
   -0.4353  -14.8683   20.3488 C   0  0  0  0  0  0  0  0  0  0  0  0
   -1.3389  -16.0604   19.9933 C   0  0  0  0  0  0  0  0  0  0  0  0
   -1.7950  -16.6231   21.3324 C   0  0  0  0  0  0  0  0  0  0  0  0
   -0.5958  -16.3966   22.2363 C   0  0  0  0  0  0  0  0  0  0  0  0
   -0.1189  -15.0028   21.8487 C   0  0  0  0  0  0  0  0  0  0  0  0
    0.9050  -13.7356   18.6848 N   0  0  0  0  0  0  0  0  0  0  0  0
    4.4461  -13.4219   17.3864 H   0  0  0  0  0  0  0  0  0  0  0  0
    3.2460  -10.8196   14.7392 H   0  0  0  0  0  0  0  0  0  0  0  0
    7.9732   -9.7932   13.8018 H   0  0  0  0  0  0  0  0  0  0  0  0
    9.7649  -11.2128   14.7099 H   0  0  0  0  0  0  0  0  0  0  0  0
    9.2247  -13.0927   16.2617 H   0  0  0  0  0  0  0  0  0  0  0  0
    6.8668  -13.4632   16.9692 H   0  0  0  0  0  0  0  0  0  0  0  0
    3.5758  -15.6129   18.1684 H   0  0  0  0  0  0  0  0  0  0  0  0
    1.8228  -16.5700   20.0372 H   0  0  0  0  0  0  0  0  0  0  0  0
   -0.9903  -13.9332   20.1953 H   0  0  0  0  0  0  0  0  0  0  0  0
   -0.7973  -16.8326   19.4340 H   0  0  0  0  0  0  0  0  0  0  0  0
   -2.1903  -15.7528   19.3772 H   0  0  0  0  0  0  0  0  0  0  0  0
   -2.0740  -17.6785   21.2655 H   0  0  0  0  0  0  0  0  0  0  0  0
   -2.6612  -16.0622   21.7028 H   0  0  0  0  0  0  0  0  0  0  0  0
    0.1844  -17.1371   22.0252 H   0  0  0  0  0  0  0  0  0  0  0  0
   -0.8547  -16.4657   23.2967 H   0  0  0  0  0  0  0  0  0  0  0  0
   -0.7010  -14.2579   22.4061 H   0  0  0  0  0  0  0  0  0  0  0  0
    0.9347  -14.8469   22.1015 H   0  0  0  0  0  0  0  0  0  0  0  0
  1  2  2  0
  2  3  1  0
  3  4  1  0
  4  5  2  0
  5  6  1  0
  6  7  2  0
  7  8  1  0
  8  9  2  0
  9 10  1  0
 10 11  2  0
 11 12  1  0
  2 13  1  0
 13 14  1  0
 14 15  2  0
 15 16  1  0
 16 17  1  0
 17 18  1  0
 18 19  1  0
 19 20  1  0
 20 21  1  0
 16 22  1  0
 12  4  1  0
 22 13  2  0
 12  7  1  0
 21 17  1  0
  3 23  1  0
  5 24  1  0
  8 25  1  0
  9 26  1  0
 10 27  1  0
 11 28  1  0
 14 29  1  0
 15 30  1  0
 17 31  1  0
 18 32  1  0
 18 33  1  0
 19 34  1  0
 19 35  1  0
 20 36  1  0
 20 37  1  0
 21 38  1  0
 21 39  1  0
M  END
>  <Energy>  (695) 
115.20242824924416

>  <compound_id>  (695) 
55948

>  <target_id>  (695) 
1

>  <reference_id>  (695) 
96

>  <inspiration_ids>  (695) 
[96, 103]

>  <energy_score>  (695) 
-34.796017989481186

>  <distance_score>  (695) 
15.45375245220137

>  <path>  (695) 
/opt/xchem-fragalysis-2/maxwin/BulkDock/SCRATCH/511022/C55948-P96/C55948-P96.minimised.mol

>  <scratch_subdir>  (695) 
/opt/xchem-fragalysis-2/maxwin/BulkDock/SCRATCH/511022/C55948-P96

>  <fragmenstein_runtime>  (695) 
17.86427354812622

>  <fragmenstein_outcome>  (695) 
too moved

>  <fragmenstein_mode>  (695) 
expansion

>  <fragmenstein_error>  (695) 


$$$$
C55948-P103
     RDKit          3D

 39 42  0  0  0  0  0  0  0  0999 V2000
  -10.3972  -17.1938   26.0540 O   0  0  0  0  0  0  0  0  0  0  0  0
   -9.9895  -17.2698   27.1261 C   0  0  0  0  0  0  0  0  0  0  0  0
   -8.4412  -16.4285   27.4542 N   0  0  0  0  0  0  0  0  0  0  0  0
   -7.5654  -15.4974   26.5783 C   0  0  0  0  0  0  0  0  0  0  0  0
   -7.9434  -14.9006   25.3597 C   0  0  0  0  0  0  0  0  0  0  0  0
   -7.0011  -14.0775   24.7646 N   0  0  0  0  0  0  0  0  0  0  0  0
   -5.9634  -14.0925   25.5559 C   0  0  0  0  0  0  0  0  0  0  0  0
   -4.6907  -13.4460   25.3778 C   0  0  0  0  0  0  0  0  0  0  0  0
   -3.7268  -13.5938   26.3008 C   0  0  0  0  0  0  0  0  0  0  0  0
   -3.9795  -14.4065   27.4791 C   0  0  0  0  0  0  0  0  0  0  0  0
   -5.1749  -15.0239   27.6548 C   0  0  0  0  0  0  0  0  0  0  0  0
   -6.2106  -14.8944   26.7089 N   0  0  0  0  0  0  0  0  0  0  0  0
  -11.0721  -18.1850   28.6795 C   0  0  0  0  0  0  0  0  0  0  0  0
  -10.7111  -20.0713   29.4666 C   0  0  0  0  0  0  0  0  0  0  0  0
  -11.5871  -20.8340   30.2355 C   0  0  0  0  0  0  0  0  0  0  0  0
  -12.2914  -20.7874   29.0230 N   0  0  0  0  0  0  0  0  0  0  0  0
  -11.9102  -22.0764   28.2276 C   0  0  0  0  0  0  0  0  0  0  0  0
  -11.7881  -23.4465   29.0015 C   0  0  0  0  0  0  0  0  0  0  0  0
  -10.9541  -24.3355   28.0871 C   0  0  0  0  0  0  0  0  0  0  0  0
  -11.2772  -23.8855   26.6753 C   0  0  0  0  0  0  0  0  0  0  0  0
  -11.9911  -22.5147   26.7784 C   0  0  0  0  0  0  0  0  0  0  0  0
  -12.4799  -19.0417   28.8338 N   0  0  0  0  0  0  0  0  0  0  0  0
   -8.1671  -16.6411   28.3666 H   0  0  0  0  0  0  0  0  0  0  0  0
   -8.8982  -15.0567   24.8692 H   0  0  0  0  0  0  0  0  0  0  0  0
   -4.5438  -12.8475   24.4857 H   0  0  0  0  0  0  0  0  0  0  0  0
   -2.7594  -13.1161   26.1894 H   0  0  0  0  0  0  0  0  0  0  0  0
   -3.1835  -14.5114   28.2101 H   0  0  0  0  0  0  0  0  0  0  0  0
   -5.3873  -15.6489   28.5127 H   0  0  0  0  0  0  0  0  0  0  0  0
  -10.1540  -20.6233   28.7767 H   0  0  0  0  0  0  0  0  0  0  0  0
  -11.4865  -21.7280   30.8213 H   0  0  0  0  0  0  0  0  0  0  0  0
  -10.8403  -21.9337   28.1481 H   0  0  0  0  0  0  0  0  0  0  0  0
  -12.7099  -23.9565   29.2008 H   0  0  0  0  0  0  0  0  0  0  0  0
  -11.3023  -23.4146   29.9713 H   0  0  0  0  0  0  0  0  0  0  0  0
  -11.1613  -25.3989   28.2423 H   0  0  0  0  0  0  0  0  0  0  0  0
   -9.8943  -24.1731   28.2952 H   0  0  0  0  0  0  0  0  0  0  0  0
  -11.9240  -24.6221   26.1832 H   0  0  0  0  0  0  0  0  0  0  0  0
  -10.3852  -23.8927   26.0659 H   0  0  0  0  0  0  0  0  0  0  0  0
  -12.8936  -22.7192   26.2442 H   0  0  0  0  0  0  0  0  0  0  0  0
  -11.6581  -21.6623   26.2251 H   0  0  0  0  0  0  0  0  0  0  0  0
  1  2  2  0
  2  3  1  0
  3  4  1  0
  4  5  2  0
  5  6  1  0
  6  7  2  0
  7  8  1  0
  8  9  2  0
  9 10  1  0
 10 11  2  0
 11 12  1  0
  2 13  1  0
 13 14  1  0
 14 15  2  0
 15 16  1  0
 16 17  1  0
 17 18  1  0
 18 19  1  0
 19 20  1  0
 20 21  1  0
 16 22  1  0
 12  4  1  0
 22 13  2  0
 12  7  1  0
 21 17  1  0
  3 23  1  0
  5 24  1  0
  8 25  1  0
  9 26  1  0
 10 27  1  0
 11 28  1  0
 14 29  1  0
 15 30  1  0
 17 31  1  0
 18 32  1  0
 18 33  1  0
 19 34  1  0
 19 35  1  0
 20 36  1  0
 20 37  1  0
 21 38  1  0
 21 39  1  0
M  END
>  <Energy>  (696) 
703.619343630917

>  <compound_id>  (696) 
55948

>  <target_id>  (696) 
1

>  <reference_id>  (696) 
103

>  <inspiration_ids>  (696) 
[96, 103]

>  <energy_score>  (696) 
553.6208973921987

>  <distance_score>  (696) 
18.955343392632884

>  <path>  (696) 
/opt/xchem-fragalysis-2/maxwin/BulkDock/SCRATCH/511022/C55948-P103/C55948-P103.minimised.mol

>  <scratch_subdir>  (696) 
/opt/xchem-fragalysis-2/maxwin/BulkDock/SCRATCH/511022/C55948-P103

>  <fragmenstein_runtime>  (696) 
25.75174045562744

>  <fragmenstein_outcome>  (696) 
too moved

>  <fragmenstein_mode>  (696) 
expansion

>  <fragmenstein_error>  (696) 


$$$$
C55949-P96
     RDKit          3D

 41 44  0  0  0  0  0  0  0  0999 V2000
   -3.9036  -29.2540   23.6692 O   0  0  0  0  0  0  0  0  0  0  0  0
   -4.0832  -28.5043   24.6265 C   0  0  0  0  0  0  0  0  0  0  0  0
   -3.0068  -27.4215   24.8850 O   0  0  0  0  0  0  0  0  0  0  0  0
   -2.0913  -26.6995   23.6736 C   0  0  0  0  0  0  0  0  0  0  0  0
   -1.3022  -25.0944   23.6058 C   0  0  0  0  0  0  0  0  0  0  0  0
   -1.7538  -23.7582   23.6758 C   0  0  0  0  0  0  0  0  0  0  0  0
   -0.7361  -22.8762   23.2172 N   0  0  0  0  0  0  0  0  0  0  0  0
   -0.7080  -21.4708   23.0494 C   0  0  0  0  0  0  0  0  0  0  0  0
    0.3805  -20.8594   22.5328 C   0  0  0  0  0  0  0  0  0  0  0  0
    1.5269  -21.6683   22.1648 C   0  0  0  0  0  0  0  0  0  0  0  0
    1.5040  -23.0101   22.3281 C   0  0  0  0  0  0  0  0  0  0  0  0
    0.3394  -23.6820   22.8671 C   0  0  0  0  0  0  0  0  0  0  0  0
    0.0405  -24.9695   23.0806 N   0  0  0  0  0  0  0  0  0  0  0  0
   -5.5318  -28.6354   25.4832 C   0  0  0  0  0  0  0  0  0  0  0  0
   -6.7755  -29.3899   25.3017 C   0  0  0  0  0  0  0  0  0  0  0  0
   -7.9181  -29.0016   25.9885 N   0  0  0  0  0  0  0  0  0  0  0  0
   -7.5872  -27.8689   26.7064 N   0  0  0  0  0  0  0  0  0  0  0  0
   -8.6884  -26.6747   27.2331 C   0  0  0  0  0  0  0  0  0  0  0  0
  -10.2489  -26.7642   27.8254 C   0  0  0  0  0  0  0  0  0  0  0  0
  -10.5696  -25.6741   28.8568 C   0  0  0  0  0  0  0  0  0  0  0  0
   -9.2679  -25.3567   29.5060 C   0  0  0  0  0  0  0  0  0  0  0  0
   -8.2914  -25.5517   28.3447 C   0  0  0  0  0  0  0  0  0  0  0  0
   -6.0616  -27.8353   26.4766 C   0  0  0  0  0  0  0  0  0  0  0  0
   -2.7596  -26.7189   22.8065 H   0  0  0  0  0  0  0  0  0  0  0  0
   -1.2671  -27.4099   23.5523 H   0  0  0  0  0  0  0  0  0  0  0  0
   -2.7195  -23.3492   23.9346 H   0  0  0  0  0  0  0  0  0  0  0  0
   -1.5963  -20.9278   23.3457 H   0  0  0  0  0  0  0  0  0  0  0  0
    0.4284  -19.7849   22.3857 H   0  0  0  0  0  0  0  0  0  0  0  0
    2.3985  -21.1653   21.7577 H   0  0  0  0  0  0  0  0  0  0  0  0
    2.3538  -23.6247   22.0539 H   0  0  0  0  0  0  0  0  0  0  0  0
   -6.9009  -30.1998   24.5912 H   0  0  0  0  0  0  0  0  0  0  0  0
   -8.9239  -26.2905   26.2502 H   0  0  0  0  0  0  0  0  0  0  0  0
  -10.9574  -26.4799   27.0417 H   0  0  0  0  0  0  0  0  0  0  0  0
  -10.5061  -27.7222   28.2927 H   0  0  0  0  0  0  0  0  0  0  0  0
  -11.3297  -25.9994   29.5741 H   0  0  0  0  0  0  0  0  0  0  0  0
  -10.9638  -24.7836   28.3499 H   0  0  0  0  0  0  0  0  0  0  0  0
   -9.0820  -25.9625   30.3856 H   0  0  0  0  0  0  0  0  0  0  0  0
   -9.2494  -24.3213   29.8698 H   0  0  0  0  0  0  0  0  0  0  0  0
   -7.2636  -25.5915   28.6869 H   0  0  0  0  0  0  0  0  0  0  0  0
   -8.5312  -24.5879   27.9011 H   0  0  0  0  0  0  0  0  0  0  0  0
   -5.5223  -27.0637   27.0012 H   0  0  0  0  0  0  0  0  0  0  0  0
  1  2  2  0
  2  3  1  0
  3  4  1  0
  4  5  1  0
  5  6  2  0
  6  7  1  0
  7  8  1  0
  8  9  2  0
  9 10  1  0
 10 11  2  0
 11 12  1  0
 12 13  2  0
  2 14  1  0
 14 15  1  0
 15 16  2  0
 16 17  1  0
 17 18  1  0
 18 19  1  0
 19 20  1  0
 20 21  1  0
 21 22  1  0
 17 23  1  0
 13  5  1  0
 23 14  2  0
 12  7  1  0
 22 18  1  0
  4 24  1  0
  4 25  1  0
  6 26  1  0
  8 27  1  0
  9 28  1  0
 10 29  1  0
 11 30  1  0
 15 31  1  0
 18 32  1  0
 19 33  1  0
 19 34  1  0
 20 35  1  0
 20 36  1  0
 21 37  1  0
 21 38  1  0
 22 39  1  0
 22 40  1  0
 23 41  1  0
M  END
>  <Energy>  (697) 
244.52056401481477

>  <compound_id>  (697) 
55949

>  <target_id>  (697) 
1

>  <reference_id>  (697) 
96

>  <inspiration_ids>  (697) 
[96, 103]

>  <energy_score>  (697) 
170.79879457691777

>  <distance_score>  (697) 
22.42227884601624

>  <path>  (697) 
/opt/xchem-fragalysis-2/maxwin/BulkDock/SCRATCH/511022/C55949-P96/C55949-P96.minimised.mol

>  <scratch_subdir>  (697) 
/opt/xchem-fragalysis-2/maxwin/BulkDock/SCRATCH/511022/C55949-P96

>  <fragmenstein_runtime>  (697) 
22.558753728866577

>  <fragmenstein_outcome>  (697) 
too moved

>  <fragmenstein_mode>  (697) 
expansion

>  <fragmenstein_error>  (697) 


$$$$
C55949-P103
     RDKit          3D

 41 44  0  0  0  0  0  0  0  0999 V2000
   -0.2723  -14.2325   22.4575 O   0  0  0  0  0  0  0  0  0  0  0  0
   -0.1349  -14.1084   23.6481 C   0  0  0  0  0  0  0  0  0  0  0  0
    1.4614  -13.3331   23.9882 O   0  0  0  0  0  0  0  0  0  0  0  0
    2.9498  -12.5348   23.1181 C   0  0  0  0  0  0  0  0  0  0  0  0
    4.0096  -11.0884   22.2732 C   0  0  0  0  0  0  0  0  0  0  0  0
    4.0559   -9.6601   22.1699 C   0  0  0  0  0  0  0  0  0  0  0  0
    5.2255   -9.2454   21.5424 N   0  0  0  0  0  0  0  0  0  0  0  0
    5.8481   -7.9909   21.5132 C   0  0  0  0  0  0  0  0  0  0  0  0
    7.0554   -7.8698   20.9305 C   0  0  0  0  0  0  0  0  0  0  0  0
    7.6580   -9.0531   20.3338 C   0  0  0  0  0  0  0  0  0  0  0  0
    6.9972  -10.2243   20.2673 C   0  0  0  0  0  0  0  0  0  0  0  0
    5.7389  -10.3570   20.9193 C   0  0  0  0  0  0  0  0  0  0  0  0
    4.9433  -11.3907   21.1265 N   0  0  0  0  0  0  0  0  0  0  0  0
   -1.5866  -14.9329   24.5349 C   0  0  0  0  0  0  0  0  0  0  0  0
   -3.0917  -15.4925   24.0819 C   0  0  0  0  0  0  0  0  0  0  0  0
   -3.7746  -16.5033   24.6681 N   0  0  0  0  0  0  0  0  0  0  0  0
   -2.8915  -16.6961   25.6130 N   0  0  0  0  0  0  0  0  0  0  0  0
   -3.1032  -17.6741   26.6899 C   0  0  0  0  0  0  0  0  0  0  0  0
   -2.1636  -17.5943   27.9004 C   0  0  0  0  0  0  0  0  0  0  0  0
   -1.1162  -18.6773   27.6995 C   0  0  0  0  0  0  0  0  0  0  0  0
   -1.8017  -19.7717   26.9051 C   0  0  0  0  0  0  0  0  0  0  0  0
   -2.9539  -19.1130   26.1536 C   0  0  0  0  0  0  0  0  0  0  0  0
   -2.3136  -15.0698   25.7206 C   0  0  0  0  0  0  0  0  0  0  0  0
    3.5781  -12.9671   23.8730 H   0  0  0  0  0  0  0  0  0  0  0  0
    2.4309  -11.7188   23.5544 H   0  0  0  0  0  0  0  0  0  0  0  0
    3.3466   -8.8825   22.3965 H   0  0  0  0  0  0  0  0  0  0  0  0
    5.3334   -7.1742   22.0029 H   0  0  0  0  0  0  0  0  0  0  0  0
    7.5945   -6.9301   20.9174 H   0  0  0  0  0  0  0  0  0  0  0  0
    8.6726   -8.9968   19.9590 H   0  0  0  0  0  0  0  0  0  0  0  0
    7.4406  -11.1078   19.8219 H   0  0  0  0  0  0  0  0  0  0  0  0
   -3.6709  -15.2257   23.2630 H   0  0  0  0  0  0  0  0  0  0  0  0
   -4.1385  -17.5295   27.0181 H   0  0  0  0  0  0  0  0  0  0  0  0
   -1.7411  -16.6116   28.1026 H   0  0  0  0  0  0  0  0  0  0  0  0
   -2.7084  -17.8109   28.8136 H   0  0  0  0  0  0  0  0  0  0  0  0
   -0.7309  -19.0499   28.6541 H   0  0  0  0  0  0  0  0  0  0  0  0
   -0.2607  -18.3066   27.1377 H   0  0  0  0  0  0  0  0  0  0  0  0
   -2.1760  -20.5491   27.5772 H   0  0  0  0  0  0  0  0  0  0  0  0
   -1.1031  -20.2612   26.2182 H   0  0  0  0  0  0  0  0  0  0  0  0
   -2.7801  -19.1615   25.0765 H   0  0  0  0  0  0  0  0  0  0  0  0
   -3.8777  -19.6796   26.3185 H   0  0  0  0  0  0  0  0  0  0  0  0
   -2.2229  -14.9062   26.7878 H   0  0  0  0  0  0  0  0  0  0  0  0
  1  2  2  0
  2  3  1  0
  3  4  1  0
  4  5  1  0
  5  6  2  0
  6  7  1  0
  7  8  1  0
  8  9  2  0
  9 10  1  0
 10 11  2  0
 11 12  1  0
 12 13  2  0
  2 14  1  0
 14 15  1  0
 15 16  2  0
 16 17  1  0
 17 18  1  0
 18 19  1  0
 19 20  1  0
 20 21  1  0
 21 22  1  0
 17 23  1  0
 13  5  1  0
 23 14  2  0
 12  7  1  0
 22 18  1  0
  4 24  1  0
  4 25  1  0
  6 26  1  0
  8 27  1  0
  9 28  1  0
 10 29  1  0
 11 30  1  0
 15 31  1  0
 18 32  1  0
 19 33  1  0
 19 34  1  0
 20 35  1  0
 20 36  1  0
 21 37  1  0
 21 38  1  0
 22 39  1  0
 22 40  1  0
 23 41  1  0
M  END
>  <Energy>  (698) 
522.86995924623886

>  <compound_id>  (698) 
55949

>  <target_id>  (698) 
1

>  <reference_id>  (698) 
103

>  <inspiration_ids>  (698) 
[96, 103]

>  <energy_score>  (698) 
449.14818980833456

>  <distance_score>  (698) 
13.513278494111267

>  <path>  (698) 
/opt/xchem-fragalysis-2/maxwin/BulkDock/SCRATCH/511022/C55949-P103/C55949-P103.minimised.mol

>  <scratch_subdir>  (698) 
/opt/xchem-fragalysis-2/maxwin/BulkDock/SCRATCH/511022/C55949-P103

>  <fragmenstein_runtime>  (698) 
17.55534338951111

>  <fragmenstein_outcome>  (698) 
too moved

>  <fragmenstein_mode>  (698) 
expansion

>  <fragmenstein_error>  (698) 


$$$$
C55951-P96
     RDKit          3D

 39 42  0  0  0  0  0  0  0  0999 V2000
    5.3911  -11.1621   17.1282 O   0  0  0  0  0  0  0  0  0  0  0  0
    5.4852  -11.5760   16.0009 C   0  0  0  0  0  0  0  0  0  0  0  0
    6.6142  -10.9550   15.1302 C   0  0  0  0  0  0  0  0  0  0  0  0
    7.6985  -10.2012   15.9332 C   0  0  0  0  0  0  0  0  0  0  0  0
    9.0703  -10.4629   15.9696 C   0  0  0  0  0  0  0  0  0  0  0  0
    9.5769   -9.6243   16.9213 N   0  0  0  0  0  0  0  0  0  0  0  0
   10.7934   -9.4167   17.5339 C   0  0  0  0  0  0  0  0  0  0  0  0
   10.7191   -8.4593   18.4778 C   0  0  0  0  0  0  0  0  0  0  0  0
    9.0902   -7.7770   18.6287 S   0  0  0  0  0  0  0  0  0  0  0  0
    8.5509   -8.8512   17.3670 C   0  0  0  0  0  0  0  0  0  0  0  0
    7.4171   -9.1018   16.7641 N   0  0  0  0  0  0  0  0  0  0  0  0
    4.6619  -12.5753   15.2636 N   0  0  0  0  0  0  0  0  0  0  0  0
    3.4977  -13.2459   15.6351 C   0  0  0  0  0  0  0  0  0  0  0  0
    2.6749  -14.3446   15.2917 C   0  0  0  0  0  0  0  0  0  0  0  0
    1.7086  -14.6621   16.2084 N   0  0  0  0  0  0  0  0  0  0  0  0
    1.9614  -13.8131   17.2896 N   0  0  0  0  0  0  0  0  0  0  0  0
    1.5926  -14.0443   19.1152 C   0  0  0  0  0  0  0  0  0  0  0  0
    0.4560  -15.7608   19.5167 C   0  0  0  0  0  0  0  0  0  0  0  0
    1.9213  -17.0858   20.4174 C   0  0  0  0  0  0  0  0  0  0  0  0
    2.9227  -15.6626   21.8039 C   0  0  0  0  0  0  0  0  0  0  0  0
    2.6736  -13.6904   21.0024 C   0  0  0  0  0  0  0  0  0  0  0  0
    2.8351  -12.7835   16.7171 C   0  0  0  0  0  0  0  0  0  0  0  0
    6.1507  -10.2500   14.4314 H   0  0  0  0  0  0  0  0  0  0  0  0
    7.0937  -11.7553   14.5555 H   0  0  0  0  0  0  0  0  0  0  0  0
    9.6799  -11.1994   15.4664 H   0  0  0  0  0  0  0  0  0  0  0  0
   11.6620   -9.9903   17.2491 H   0  0  0  0  0  0  0  0  0  0  0  0
   11.5391   -8.1215   19.0979 H   0  0  0  0  0  0  0  0  0  0  0  0
    5.0770  -12.7442   14.3575 H   0  0  0  0  0  0  0  0  0  0  0  0
    2.7606  -14.9885   14.4274 H   0  0  0  0  0  0  0  0  0  0  0  0
    1.2560  -13.1192   18.9175 H   0  0  0  0  0  0  0  0  0  0  0  0
   -0.0580  -16.1530   18.6003 H   0  0  0  0  0  0  0  0  0  0  0  0
   -0.3996  -15.5224   20.1550 H   0  0  0  0  0  0  0  0  0  0  0  0
    1.2701  -18.0427   20.6113 H   0  0  0  0  0  0  0  0  0  0  0  0
    2.7252  -17.7641   19.9177 H   0  0  0  0  0  0  0  0  0  0  0  0
    3.7985  -15.0952   21.9468 H   0  0  0  0  0  0  0  0  0  0  0  0
    2.7243  -15.9145   22.8868 H   0  0  0  0  0  0  0  0  0  0  0  0
    3.6066  -13.3480   21.4123 H   0  0  0  0  0  0  0  0  0  0  0  0
    2.0066  -13.0638   21.6078 H   0  0  0  0  0  0  0  0  0  0  0  0
    3.1648  -11.9769   17.3608 H   0  0  0  0  0  0  0  0  0  0  0  0
  1  2  2  0
  2  3  1  0
  3  4  1  0
  4  5  2  0
  5  6  1  0
  6  7  1  0
  7  8  2  0
  8  9  1  0
  9 10  1  0
 10 11  2  0
  2 12  1  0
 12 13  1  0
 13 14  1  0
 14 15  2  0
 15 16  1  0
 16 17  1  0
 17 18  1  0
 18 19  1  0
 19 20  1  0
 20 21  1  0
 16 22  1  0
 11  4  1  0
 22 13  2  0
 10  6  1  0
 21 17  1  0
  3 23  1  0
  3 24  1  0
  5 25  1  0
  7 26  1  0
  8 27  1  0
 12 28  1  0
 14 29  1  0
 17 30  1  0
 18 31  1  0
 18 32  1  0
 19 33  1  0
 19 34  1  0
 20 35  1  0
 20 36  1  0
 21 37  1  0
 21 38  1  0
 22 39  1  0
M  END
>  <Energy>  (699) 
750.19329766257079

>  <compound_id>  (699) 
55951

>  <target_id>  (699) 
1

>  <reference_id>  (699) 
96

>  <inspiration_ids>  (699) 
[96, 103]

>  <energy_score>  (699) 
659.6728946295078

>  <distance_score>  (699) 
15.11035888877503

>  <path>  (699) 
/opt/xchem-fragalysis-2/maxwin/BulkDock/SCRATCH/511022/C55951-P96/C55951-P96.minimised.mol

>  <scratch_subdir>  (699) 
/opt/xchem-fragalysis-2/maxwin/BulkDock/SCRATCH/511022/C55951-P96

>  <fragmenstein_runtime>  (699) 
28.905182123184204

>  <fragmenstein_outcome>  (699) 
too moved

>  <fragmenstein_mode>  (699) 
expansion

>  <fragmenstein_error>  (699) 


$$$$
C55951-P103
     RDKit          3D

 39 42  0  0  0  0  0  0  0  0999 V2000
    2.2310   -6.0469   27.7419 O   0  0  0  0  0  0  0  0  0  0  0  0
    1.4568   -6.4110   26.8945 C   0  0  0  0  0  0  0  0  0  0  0  0
    1.6933   -5.9892   25.3796 C   0  0  0  0  0  0  0  0  0  0  0  0
    2.9917   -5.2375   24.9475 C   0  0  0  0  0  0  0  0  0  0  0  0
    3.6119   -4.1182   25.5057 C   0  0  0  0  0  0  0  0  0  0  0  0
    4.5778   -3.7285   24.6161 N   0  0  0  0  0  0  0  0  0  0  0  0
    5.4945   -2.7048   24.5125 C   0  0  0  0  0  0  0  0  0  0  0  0
    6.1925   -2.7697   23.3632 C   0  0  0  0  0  0  0  0  0  0  0  0
    5.7195   -4.1548   22.3557 S   0  0  0  0  0  0  0  0  0  0  0  0
    4.5460   -4.6020   23.5739 C   0  0  0  0  0  0  0  0  0  0  0  0
    3.6267   -5.5280   23.7113 N   0  0  0  0  0  0  0  0  0  0  0  0
    0.2057   -7.2273   27.0047 N   0  0  0  0  0  0  0  0  0  0  0  0
   -0.3744   -7.8800   28.1107 C   0  0  0  0  0  0  0  0  0  0  0  0
    0.0638   -7.9897   29.4506 C   0  0  0  0  0  0  0  0  0  0  0  0
   -0.7285   -8.7521   30.2259 N   0  0  0  0  0  0  0  0  0  0  0  0
   -1.7270   -9.1680   29.4107 N   0  0  0  0  0  0  0  0  0  0  0  0
   -2.6933  -10.1892   29.8372 C   0  0  0  0  0  0  0  0  0  0  0  0
   -2.5081  -10.8711   31.2112 C   0  0  0  0  0  0  0  0  0  0  0  0
   -3.7565  -11.7502   31.3683 C   0  0  0  0  0  0  0  0  0  0  0  0
   -4.8434  -11.0482   30.5508 C   0  0  0  0  0  0  0  0  0  0  0  0
   -4.1725   -9.7978   29.9532 C   0  0  0  0  0  0  0  0  0  0  0  0
   -1.5554   -8.6198   28.1326 C   0  0  0  0  0  0  0  0  0  0  0  0
    1.6176   -6.8912   24.7631 H   0  0  0  0  0  0  0  0  0  0  0  0
    0.8539   -5.3361   25.1074 H   0  0  0  0  0  0  0  0  0  0  0  0
    3.4098   -3.5673   26.4137 H   0  0  0  0  0  0  0  0  0  0  0  0
    5.5828   -1.9643   25.2923 H   0  0  0  0  0  0  0  0  0  0  0  0
    6.9582   -2.0725   23.0536 H   0  0  0  0  0  0  0  0  0  0  0  0
   -0.2426   -7.2738   26.0983 H   0  0  0  0  0  0  0  0  0  0  0  0
    0.9490   -7.5496   29.8931 H   0  0  0  0  0  0  0  0  0  0  0  0
   -2.6455  -10.9428   29.0580 H   0  0  0  0  0  0  0  0  0  0  0  0
   -2.4922  -10.1132   32.0059 H   0  0  0  0  0  0  0  0  0  0  0  0
   -1.5827  -11.4405   31.3077 H   0  0  0  0  0  0  0  0  0  0  0  0
   -4.0384  -11.8568   32.4203 H   0  0  0  0  0  0  0  0  0  0  0  0
   -3.5747  -12.7528   30.9659 H   0  0  0  0  0  0  0  0  0  0  0  0
   -5.7083  -10.7777   31.1644 H   0  0  0  0  0  0  0  0  0  0  0  0
   -5.1943  -11.7099   29.7505 H   0  0  0  0  0  0  0  0  0  0  0  0
   -4.6203   -9.5091   29.0005 H   0  0  0  0  0  0  0  0  0  0  0  0
   -4.2872   -8.9449   30.6343 H   0  0  0  0  0  0  0  0  0  0  0  0
   -2.2850   -8.8343   27.3688 H   0  0  0  0  0  0  0  0  0  0  0  0
  1  2  2  0
  2  3  1  0
  3  4  1  0
  4  5  2  0
  5  6  1  0
  6  7  1  0
  7  8  2  0
  8  9  1  0
  9 10  1  0
 10 11  2  0
  2 12  1  0
 12 13  1  0
 13 14  1  0
 14 15  2  0
 15 16  1  0
 16 17  1  0
 17 18  1  0
 18 19  1  0
 19 20  1  0
 20 21  1  0
 16 22  1  0
 11  4  1  0
 22 13  2  0
 10  6  1  0
 21 17  1  0
  3 23  1  0
  3 24  1  0
  5 25  1  0
  7 26  1  0
  8 27  1  0
 12 28  1  0
 14 29  1  0
 17 30  1  0
 18 31  1  0
 18 32  1  0
 19 33  1  0
 19 34  1  0
 20 35  1  0
 20 36  1  0
 21 37  1  0
 21 38  1  0
 22 39  1  0
M  END
>  <Energy>  (700) 
66.994269580939303

>  <compound_id>  (700) 
55951

>  <target_id>  (700) 
1

>  <reference_id>  (700) 
103

>  <inspiration_ids>  (700) 
[96, 103]

>  <energy_score>  (700) 
-23.526133452126146

>  <distance_score>  (700) 
14.648861539016822

>  <path>  (700) 
/opt/xchem-fragalysis-2/maxwin/BulkDock/SCRATCH/511022/C55951-P103/C55951-P103.minimised.mol

>  <scratch_subdir>  (700) 
/opt/xchem-fragalysis-2/maxwin/BulkDock/SCRATCH/511022/C55951-P103

>  <fragmenstein_runtime>  (700) 
44.438639879226685

>  <fragmenstein_outcome>  (700) 
too moved

>  <fragmenstein_mode>  (700) 
expansion

>  <fragmenstein_error>  (700) 


$$$$
C55953-P96
     RDKit          3D

 31 33  0  0  0  0  0  0  0  0999 V2000
   -2.6593  -14.9897   26.3803 C   0  0  0  0  0  0  0  0  0  0  0  0
   -2.9445  -15.0739   25.0323 N   0  0  0  0  0  0  0  0  0  0  0  0
   -3.0706  -13.7552   23.7771 C   0  0  0  0  0  0  0  0  0  0  0  0
   -1.9849  -14.0104   23.0263 C   0  0  0  0  0  0  0  0  0  0  0  0
   -1.1256  -12.8405   22.5472 C   0  0  0  0  0  0  0  0  0  0  0  0
    0.6604  -12.3323   22.1296 O   0  0  0  0  0  0  0  0  0  0  0  0
    2.2833  -12.3757   21.5017 C   0  0  0  0  0  0  0  0  0  0  0  0
    2.5295  -13.1030   20.5519 O   0  0  0  0  0  0  0  0  0  0  0  0
    3.4979  -11.6362   21.8910 C   0  0  0  0  0  0  0  0  0  0  0  0
    4.4319  -11.8001   22.9363 C   0  0  0  0  0  0  0  0  0  0  0  0
    5.5861  -11.0202   22.8024 N   0  0  0  0  0  0  0  0  0  0  0  0
    5.4936  -10.5788   21.5860 C   0  0  0  0  0  0  0  0  0  0  0  0
    6.5434   -9.6589   20.5406 S   0  0  0  0  0  0  0  0  0  0  0  0
    5.5009  -10.0999   19.1876 C   0  0  0  0  0  0  0  0  0  0  0  0
    4.4336  -10.8262   19.5699 C   0  0  0  0  0  0  0  0  0  0  0  0
    4.3815  -11.0429   20.9375 N   0  0  0  0  0  0  0  0  0  0  0  0
   -1.7090  -12.0103   23.7852 C   0  0  0  0  0  0  0  0  0  0  0  0
   -2.7297  -11.1040   23.7846 F   0  0  0  0  0  0  0  0  0  0  0  0
   -0.1813  -11.3306   24.2601 F   0  0  0  0  0  0  0  0  0  0  0  0
   -2.1603  -12.6849   25.0295 F   0  0  0  0  0  0  0  0  0  0  0  0
   -2.9800  -14.8934   23.5259 C   0  0  0  0  0  0  0  0  0  0  0  0
   -2.4148  -15.9044   24.3100 N   0  0  0  0  0  0  0  0  0  0  0  0
   -1.7937  -15.6601   26.4386 H   0  0  0  0  0  0  0  0  0  0  0  0
   -2.4801  -13.9501   26.6343 H   0  0  0  0  0  0  0  0  0  0  0  0
   -3.5467  -15.3683   26.8933 H   0  0  0  0  0  0  0  0  0  0  0  0
   -4.0113  -13.6454   22.8966 H   0  0  0  0  0  0  0  0  0  0  0  0
   -1.2423  -12.8615   21.4966 H   0  0  0  0  0  0  0  0  0  0  0  0
    4.3049  -12.4151   23.8207 H   0  0  0  0  0  0  0  0  0  0  0  0
    5.7498   -9.8417   18.1664 H   0  0  0  0  0  0  0  0  0  0  0  0
    3.6927  -11.2818   18.9357 H   0  0  0  0  0  0  0  0  0  0  0  0
   -4.3042  -14.7794   23.7351 H   0  0  0  0  0  0  0  0  0  0  0  0
  1  2  1  0
  2  3  1  0
  3  4  2  0
  4  5  1  0
  5  6  1  0
  6  7  1  0
  7  8  2  0
  7  9  1  0
  9 10  2  0
 10 11  1  0
 11 12  2  0
 12 13  1  0
 13 14  1  0
 14 15  2  0
 15 16  1  0
  5 17  1  0
 17 18  1  0
 17 19  1  0
 17 20  1  0
  4 21  1  0
 21 22  2  0
 22  2  1  0
 16  9  1  0
 16 12  1  0
  1 23  1  0
  1 24  1  0
  1 25  1  0
  3 26  1  0
  5 27  1  0
 10 28  1  0
 14 29  1  0
 15 30  1  0
 21 31  1  0
M  END
>  <Energy>  (701) 
820.34072710989199

>  <compound_id>  (701) 
55953

>  <target_id>  (701) 
1

>  <reference_id>  (701) 
96

>  <inspiration_ids>  (701) 
[96, 103]

>  <energy_score>  (701) 
742.480923838961

>  <distance_score>  (701) 
14.579122910377821

>  <path>  (701) 
/opt/xchem-fragalysis-2/maxwin/BulkDock/SCRATCH/511022/C55953-P96/C55953-P96.minimised.mol

>  <scratch_subdir>  (701) 
/opt/xchem-fragalysis-2/maxwin/BulkDock/SCRATCH/511022/C55953-P96

>  <fragmenstein_runtime>  (701) 
12.456879377365112

>  <fragmenstein_outcome>  (701) 
too moved

>  <fragmenstein_mode>  (701) 
expansion

>  <fragmenstein_error>  (701) 


$$$$
C55953-P103
     RDKit          3D

 31 33  0  0  0  0  0  0  0  0999 V2000
   -2.4226  -15.3362   24.6182 C   0  0  0  0  0  0  0  0  0  0  0  0
   -1.1668  -14.6371   24.3909 N   0  0  0  0  0  0  0  0  0  0  0  0
   -0.3525  -14.1492   23.3611 C   0  0  0  0  0  0  0  0  0  0  0  0
    0.9067  -14.0221   23.9859 C   0  0  0  0  0  0  0  0  0  0  0  0
    2.7401  -13.6441   23.5551 C   0  0  0  0  0  0  0  0  0  0  0  0
    3.6512  -14.2060   22.4762 O   0  0  0  0  0  0  0  0  0  0  0  0
    5.0095  -14.1025   22.7940 C   0  0  0  0  0  0  0  0  0  0  0  0
    5.4881  -14.9108   23.5833 O   0  0  0  0  0  0  0  0  0  0  0  0
    5.8005  -12.9702   22.2645 C   0  0  0  0  0  0  0  0  0  0  0  0
    6.5966  -12.1151   23.0573 C   0  0  0  0  0  0  0  0  0  0  0  0
    7.2509  -11.1235   22.3574 N   0  0  0  0  0  0  0  0  0  0  0  0
    6.9505  -11.4132   21.1280 C   0  0  0  0  0  0  0  0  0  0  0  0
    7.4685  -10.7640   19.5976 S   0  0  0  0  0  0  0  0  0  0  0  0
    6.6049  -12.0847   18.8082 C   0  0  0  0  0  0  0  0  0  0  0  0
    5.9672  -12.9009   19.6737 C   0  0  0  0  0  0  0  0  0  0  0  0
    6.1409  -12.5191   20.9909 N   0  0  0  0  0  0  0  0  0  0  0  0
    2.5443  -12.1973   23.2675 C   0  0  0  0  0  0  0  0  0  0  0  0
    1.4256  -11.7769   22.6593 F   0  0  0  0  0  0  0  0  0  0  0  0
    3.5809  -11.6916   22.6003 F   0  0  0  0  0  0  0  0  0  0  0  0
    2.2400  -11.7782   24.4480 F   0  0  0  0  0  0  0  0  0  0  0  0
    0.6194  -13.6992   25.5021 C   0  0  0  0  0  0  0  0  0  0  0  0
   -1.0603  -13.6454   25.3018 N   0  0  0  0  0  0  0  0  0  0  0  0
   -3.1571  -15.1887   23.8440 H   0  0  0  0  0  0  0  0  0  0  0  0
   -2.6922  -14.8291   25.5183 H   0  0  0  0  0  0  0  0  0  0  0  0
   -2.4853  -16.3553   24.9519 H   0  0  0  0  0  0  0  0  0  0  0  0
   -0.5006  -14.4879   22.3639 H   0  0  0  0  0  0  0  0  0  0  0  0
    3.3398  -13.7587   24.4610 H   0  0  0  0  0  0  0  0  0  0  0  0
    6.7046  -12.1782   24.1346 H   0  0  0  0  0  0  0  0  0  0  0  0
    6.6076  -12.1948   17.7314 H   0  0  0  0  0  0  0  0  0  0  0  0
    5.3772  -13.7711   19.4294 H   0  0  0  0  0  0  0  0  0  0  0  0
    1.1291  -13.2378   26.3208 H   0  0  0  0  0  0  0  0  0  0  0  0
  1  2  1  0
  2  3  1  0
  3  4  2  0
  4  5  1  0
  5  6  1  0
  6  7  1  0
  7  8  2  0
  7  9  1  0
  9 10  2  0
 10 11  1  0
 11 12  2  0
 12 13  1  0
 13 14  1  0
 14 15  2  0
 15 16  1  0
  5 17  1  0
 17 18  1  0
 17 19  1  0
 17 20  1  0
  4 21  1  0
 21 22  2  0
 22  2  1  0
 16  9  1  0
 16 12  1  0
  1 23  1  0
  1 24  1  0
  1 25  1  0
  3 26  1  0
  5 27  1  0
 10 28  1  0
 14 29  1  0
 15 30  1  0
 21 31  1  0
M  END
>  <Energy>  (702) 
255.28433510320102

>  <compound_id>  (702) 
55953

>  <target_id>  (702) 
1

>  <reference_id>  (702) 
103

>  <inspiration_ids>  (702) 
[96, 103]

>  <energy_score>  (702) 
177.42453183226138

>  <distance_score>  (702) 
15.231791850972645

>  <path>  (702) 
/opt/xchem-fragalysis-2/maxwin/BulkDock/SCRATCH/511022/C55953-P103/C55953-P103.minimised.mol

>  <scratch_subdir>  (702) 
/opt/xchem-fragalysis-2/maxwin/BulkDock/SCRATCH/511022/C55953-P103

>  <fragmenstein_runtime>  (702) 
14.562257528305054

>  <fragmenstein_outcome>  (702) 
too moved

>  <fragmenstein_mode>  (702) 
expansion

>  <fragmenstein_error>  (702) 


$$$$
C55954-P96
     RDKit          3D

 46 48  0  0  0  0  0  0  0  0999 V2000
   -1.9354   -8.6575   31.7779 C   0  0  0  0  0  0  0  0  0  0  0  0
   -1.0050   -8.7858   30.5835 C   0  0  0  0  0  0  0  0  0  0  0  0
   -1.0180   -7.5218   29.7291 C   0  0  0  0  0  0  0  0  0  0  0  0
   -0.1346   -7.6368   28.5835 N   0  0  0  0  0  0  0  0  0  0  0  0
   -0.4661   -8.0476   27.3339 C   0  0  0  0  0  0  0  0  0  0  0  0
    0.7224   -8.0766   26.6367 C   0  0  0  0  0  0  0  0  0  0  0  0
    1.7222   -7.5497   27.4956 C   0  0  0  0  0  0  0  0  0  0  0  0
    3.2469   -7.4530   27.3469 C   0  0  0  0  0  0  0  0  0  0  0  0
    3.9091   -6.6307   26.3027 N   0  0  0  0  0  0  0  0  0  0  0  0
    5.1174   -6.9349   25.4102 C   0  0  0  0  0  0  0  0  0  0  0  0
    5.7310   -7.9257   25.3089 O   0  0  0  0  0  0  0  0  0  0  0  0
    5.3143   -5.5997   24.7169 N   0  0  0  0  0  0  0  0  0  0  0  0
    6.2797   -5.1874   23.6342 C   0  0  0  0  0  0  0  0  0  0  0  0
    7.4175   -4.1783   24.0072 C   0  0  0  0  0  0  0  0  0  0  0  0
    8.5091   -3.8928   22.9775 C   0  0  0  0  0  0  0  0  0  0  0  0
    9.0978   -2.6770   22.6530 C   0  0  0  0  0  0  0  0  0  0  0  0
   10.1165   -2.9492   21.7630 N   0  0  0  0  0  0  0  0  0  0  0  0
   10.9635   -2.0855   21.0665 C   0  0  0  0  0  0  0  0  0  0  0  0
   11.8498   -2.5940   20.1921 C   0  0  0  0  0  0  0  0  0  0  0  0
   11.9232   -4.0366   20.0230 C   0  0  0  0  0  0  0  0  0  0  0  0
   11.1133   -4.8661   20.7115 C   0  0  0  0  0  0  0  0  0  0  0  0
   10.1421   -4.3314   21.6123 C   0  0  0  0  0  0  0  0  0  0  0  0
    9.1693   -4.9048   22.3013 N   0  0  0  0  0  0  0  0  0  0  0  0
    1.1653   -7.2997   28.6983 N   0  0  0  0  0  0  0  0  0  0  0  0
   -2.9676   -8.4894   31.4546 H   0  0  0  0  0  0  0  0  0  0  0  0
   -1.6358   -7.8234   32.4205 H   0  0  0  0  0  0  0  0  0  0  0  0
   -1.9119   -9.5732   32.3769 H   0  0  0  0  0  0  0  0  0  0  0  0
    0.0127   -8.9905   30.9373 H   0  0  0  0  0  0  0  0  0  0  0  0
   -1.3078   -9.6501   29.9798 H   0  0  0  0  0  0  0  0  0  0  0  0
   -0.6958   -6.6480   30.3073 H   0  0  0  0  0  0  0  0  0  0  0  0
   -2.0251   -7.3177   29.3477 H   0  0  0  0  0  0  0  0  0  0  0  0
   -1.4769   -8.3258   27.0803 H   0  0  0  0  0  0  0  0  0  0  0  0
    0.8532   -8.4814   25.6562 H   0  0  0  0  0  0  0  0  0  0  0  0
    3.6615   -7.0796   28.2916 H   0  0  0  0  0  0  0  0  0  0  0  0
    3.6395   -8.4682   27.2268 H   0  0  0  0  0  0  0  0  0  0  0  0
    3.6674   -5.6609   26.2142 H   0  0  0  0  0  0  0  0  0  0  0  0
    4.6645   -4.9336   25.0892 H   0  0  0  0  0  0  0  0  0  0  0  0
    6.7286   -6.1143   23.2606 H   0  0  0  0  0  0  0  0  0  0  0  0
    5.6696   -4.7657   22.8279 H   0  0  0  0  0  0  0  0  0  0  0  0
    6.9472   -3.2292   24.2943 H   0  0  0  0  0  0  0  0  0  0  0  0
    7.9182   -4.5539   24.9090 H   0  0  0  0  0  0  0  0  0  0  0  0
    8.8950   -1.6677   22.9798 H   0  0  0  0  0  0  0  0  0  0  0  0
   10.8471   -1.0228   21.2366 H   0  0  0  0  0  0  0  0  0  0  0  0
   12.5069   -1.9576   19.6083 H   0  0  0  0  0  0  0  0  0  0  0  0
   12.6626   -4.4280   19.3306 H   0  0  0  0  0  0  0  0  0  0  0  0
   11.1711   -5.9423   20.5952 H   0  0  0  0  0  0  0  0  0  0  0  0
  1  2  1  0
  2  3  1  0
  3  4  1  0
  4  5  1  0
  5  6  2  0
  6  7  1  0
  7  8  1  0
  8  9  1  0
  9 10  1  0
 10 11  2  0
 10 12  1  0
 12 13  1  0
 13 14  1  0
 14 15  1  0
 15 16  2  0
 16 17  1  0
 17 18  1  0
 18 19  2  0
 19 20  1  0
 20 21  2  0
 21 22  1  0
 22 23  2  0
  7 24  2  0
 24  4  1  0
 23 15  1  0
 22 17  1  0
  1 25  1  0
  1 26  1  0
  1 27  1  0
  2 28  1  0
  2 29  1  0
  3 30  1  0
  3 31  1  0
  5 32  1  0
  6 33  1  0
  8 34  1  0
  8 35  1  0
  9 36  1  0
 12 37  1  0
 13 38  1  0
 13 39  1  0
 14 40  1  0
 14 41  1  0
 16 42  1  0
 18 43  1  0
 19 44  1  0
 20 45  1  0
 21 46  1  0
M  END
>  <Energy>  (703) 
-9.3547341720823916

>  <compound_id>  (703) 
55954

>  <target_id>  (703) 
1

>  <reference_id>  (703) 
96

>  <inspiration_ids>  (703) 
[96, 103]

>  <energy_score>  (703) 
3.614442772450275

>  <distance_score>  (703) 
13.718388315155293

>  <path>  (703) 
/opt/xchem-fragalysis-2/maxwin/BulkDock/SCRATCH/511022/C55954-P96/C55954-P96.minimised.mol

>  <scratch_subdir>  (703) 
/opt/xchem-fragalysis-2/maxwin/BulkDock/SCRATCH/511022/C55954-P96

>  <fragmenstein_runtime>  (703) 
29.443548440933228

>  <fragmenstein_outcome>  (703) 
too moved

>  <fragmenstein_mode>  (703) 
expansion

>  <fragmenstein_error>  (703) 


$$$$
C55954-P103
     RDKit          3D

 46 48  0  0  0  0  0  0  0  0999 V2000
   -4.2788  -16.2670   27.0254 C   0  0  0  0  0  0  0  0  0  0  0  0
   -3.8847  -14.8105   27.2343 C   0  0  0  0  0  0  0  0  0  0  0  0
   -3.4737  -14.1010   25.9356 C   0  0  0  0  0  0  0  0  0  0  0  0
   -2.0957  -14.4197   25.4731 N   0  0  0  0  0  0  0  0  0  0  0  0
   -1.9402  -15.2710   24.4831 C   0  0  0  0  0  0  0  0  0  0  0  0
   -0.8973  -14.5028   23.6276 C   0  0  0  0  0  0  0  0  0  0  0  0
    0.4534  -14.0649   24.2540 C   0  0  0  0  0  0  0  0  0  0  0  0
    2.3749  -13.2664   23.6601 C   0  0  0  0  0  0  0  0  0  0  0  0
    2.8569  -11.3835   23.1452 N   0  0  0  0  0  0  0  0  0  0  0  0
    4.5917  -10.4115   23.0171 C   0  0  0  0  0  0  0  0  0  0  0  0
    5.6800  -10.9451   23.1315 O   0  0  0  0  0  0  0  0  0  0  0  0
    4.3417   -8.5080   22.9524 N   0  0  0  0  0  0  0  0  0  0  0  0
    5.5588   -7.1201   23.2020 C   0  0  0  0  0  0  0  0  0  0  0  0
    6.9373   -7.0874   24.1538 C   0  0  0  0  0  0  0  0  0  0  0  0
    8.2141   -6.6524   23.4137 C   0  0  0  0  0  0  0  0  0  0  0  0
    9.2300   -7.4493   22.9146 C   0  0  0  0  0  0  0  0  0  0  0  0
   10.2358   -6.6058   22.5211 N   0  0  0  0  0  0  0  0  0  0  0  0
   11.4980   -6.9076   22.0124 C   0  0  0  0  0  0  0  0  0  0  0  0
   12.3640   -5.9106   21.7684 C   0  0  0  0  0  0  0  0  0  0  0  0
   11.9698   -4.5581   22.1146 C   0  0  0  0  0  0  0  0  0  0  0  0
   10.7480   -4.2831   22.6154 C   0  0  0  0  0  0  0  0  0  0  0  0
    9.7965   -5.3202   22.7935 C   0  0  0  0  0  0  0  0  0  0  0  0
    8.5600   -5.3169   23.2580 N   0  0  0  0  0  0  0  0  0  0  0  0
   -0.9814  -13.6090   25.2584 N   0  0  0  0  0  0  0  0  0  0  0  0
   -3.4305  -16.8690   26.6898 H   0  0  0  0  0  0  0  0  0  0  0  0
   -5.0811  -16.3564   26.2862 H   0  0  0  0  0  0  0  0  0  0  0  0
   -4.6389  -16.6961   27.9661 H   0  0  0  0  0  0  0  0  0  0  0  0
   -3.0909  -14.7688   27.9876 H   0  0  0  0  0  0  0  0  0  0  0  0
   -4.7520  -14.2841   27.6503 H   0  0  0  0  0  0  0  0  0  0  0  0
   -4.1688  -14.4020   25.1388 H   0  0  0  0  0  0  0  0  0  0  0  0
   -3.5900  -13.0105   25.9782 H   0  0  0  0  0  0  0  0  0  0  0  0
   -2.8181  -15.9255   24.4591 H   0  0  0  0  0  0  0  0  0  0  0  0
   -0.7643  -14.6512   22.5546 H   0  0  0  0  0  0  0  0  0  0  0  0
    2.9137  -13.3305   24.5757 H   0  0  0  0  0  0  0  0  0  0  0  0
    2.9156  -14.0424   23.1034 H   0  0  0  0  0  0  0  0  0  0  0  0
    2.1594  -10.8105   22.9499 H   0  0  0  0  0  0  0  0  0  0  0  0
    3.3415   -8.2978   22.8752 H   0  0  0  0  0  0  0  0  0  0  0  0
    6.1168   -6.9618   22.3145 H   0  0  0  0  0  0  0  0  0  0  0  0
    5.0112   -6.6257   23.9881 H   0  0  0  0  0  0  0  0  0  0  0  0
    6.7776   -6.3212   24.9270 H   0  0  0  0  0  0  0  0  0  0  0  0
    7.1017   -8.0279   24.6936 H   0  0  0  0  0  0  0  0  0  0  0  0
    9.3472   -8.5232   22.8900 H   0  0  0  0  0  0  0  0  0  0  0  0
   11.7297   -7.9510   21.8469 H   0  0  0  0  0  0  0  0  0  0  0  0
   13.3619   -6.0845   21.3827 H   0  0  0  0  0  0  0  0  0  0  0  0
   12.7138   -3.7746   22.0056 H   0  0  0  0  0  0  0  0  0  0  0  0
   10.4817   -3.2936   22.9572 H   0  0  0  0  0  0  0  0  0  0  0  0
  1  2  1  0
  2  3  1  0
  3  4  1  0
  4  5  1  0
  5  6  2  0
  6  7  1  0
  7  8  1  0
  8  9  1  0
  9 10  1  0
 10 11  2  0
 10 12  1  0
 12 13  1  0
 13 14  1  0
 14 15  1  0
 15 16  2  0
 16 17  1  0
 17 18  1  0
 18 19  2  0
 19 20  1  0
 20 21  2  0
 21 22  1  0
 22 23  2  0
  7 24  2  0
 24  4  1  0
 23 15  1  0
 22 17  1  0
  1 25  1  0
  1 26  1  0
  1 27  1  0
  2 28  1  0
  2 29  1  0
  3 30  1  0
  3 31  1  0
  5 32  1  0
  6 33  1  0
  8 34  1  0
  8 35  1  0
  9 36  1  0
 12 37  1  0
 13 38  1  0
 13 39  1  0
 14 40  1  0
 14 41  1  0
 16 42  1  0
 18 43  1  0
 19 44  1  0
 20 45  1  0
 21 46  1  0
M  END
>  <Energy>  (704) 
694.3574472319707

>  <compound_id>  (704) 
55954

>  <target_id>  (704) 
1

>  <reference_id>  (704) 
103

>  <inspiration_ids>  (704) 
[96, 103]

>  <energy_score>  (704) 
707.3266241764991

>  <distance_score>  (704) 
11.94781091056922

>  <path>  (704) 
/opt/xchem-fragalysis-2/maxwin/BulkDock/SCRATCH/511022/C55954-P103/C55954-P103.minimised.mol

>  <scratch_subdir>  (704) 
/opt/xchem-fragalysis-2/maxwin/BulkDock/SCRATCH/511022/C55954-P103

>  <fragmenstein_runtime>  (704) 
28.360837697982788

>  <fragmenstein_outcome>  (704) 
too moved

>  <fragmenstein_mode>  (704) 
expansion

>  <fragmenstein_error>  (704) 


$$$$
C55960-P96
     RDKit          3D

 42 45  0  0  0  0  0  0  0  0999 V2000
    1.3233  -11.6839   24.6636 C   0  0  0  0  0  0  0  0  0  0  0  0
    0.0839  -11.1254   25.0400 C   0  0  0  0  0  0  0  0  0  0  0  0
    0.2240   -9.3271   25.5132 N   0  0  0  0  0  0  0  0  0  0  0  0
    1.3128   -8.5759   26.1588 C   0  0  0  0  0  0  0  0  0  0  0  0
    2.3541   -8.9528   26.6166 O   0  0  0  0  0  0  0  0  0  0  0  0
    1.2131   -6.9804   26.1891 C   0  0  0  0  0  0  0  0  0  0  0  0
    2.5118   -6.2309   25.5456 C   0  0  0  0  0  0  0  0  0  0  0  0
    3.8735   -6.5297   25.6055 C   0  0  0  0  0  0  0  0  0  0  0  0
    4.5295   -5.7294   24.6814 N   0  0  0  0  0  0  0  0  0  0  0  0
    5.8672   -5.7398   24.2589 C   0  0  0  0  0  0  0  0  0  0  0  0
    6.2647   -4.9070   23.2784 C   0  0  0  0  0  0  0  0  0  0  0  0
    5.2868   -4.0041   22.6903 C   0  0  0  0  0  0  0  0  0  0  0  0
    4.0038   -3.9865   23.1122 C   0  0  0  0  0  0  0  0  0  0  0  0
    3.5666   -4.8827   24.1437 C   0  0  0  0  0  0  0  0  0  0  0  0
    2.3709   -5.1316   24.6709 N   0  0  0  0  0  0  0  0  0  0  0  0
   -1.0900  -12.5426   26.2202 C   0  0  0  0  0  0  0  0  0  0  0  0
   -2.3256  -13.1245   25.8696 C   0  0  0  0  0  0  0  0  0  0  0  0
   -3.0222  -13.6524   26.8673 N   0  0  0  0  0  0  0  0  0  0  0  0
   -2.7898  -12.8289   28.0069 N   0  0  0  0  0  0  0  0  0  0  0  0
   -3.3206  -12.8689   29.4521 C   0  0  0  0  0  0  0  0  0  0  0  0
   -4.4896  -12.0426   29.9356 C   0  0  0  0  0  0  0  0  0  0  0  0
   -4.5427  -13.5458   30.0144 C   0  0  0  0  0  0  0  0  0  0  0  0
   -1.4674  -12.7727   27.8515 C   0  0  0  0  0  0  0  0  0  0  0  0
    1.0002  -12.5574   25.1607 H   0  0  0  0  0  0  0  0  0  0  0  0
    1.2914  -11.4176   23.6097 H   0  0  0  0  0  0  0  0  0  0  0  0
    2.2853  -11.6505   25.1764 H   0  0  0  0  0  0  0  0  0  0  0  0
   -0.3963  -10.7330   24.2213 H   0  0  0  0  0  0  0  0  0  0  0  0
   -0.5377   -8.7038   25.3249 H   0  0  0  0  0  0  0  0  0  0  0  0
    1.1360   -6.6630   27.2345 H   0  0  0  0  0  0  0  0  0  0  0  0
    0.3267   -6.6398   25.6479 H   0  0  0  0  0  0  0  0  0  0  0  0
    4.4072   -7.2967   26.1499 H   0  0  0  0  0  0  0  0  0  0  0  0
    6.5311   -6.4415   24.7480 H   0  0  0  0  0  0  0  0  0  0  0  0
    7.2907   -4.8822   22.9279 H   0  0  0  0  0  0  0  0  0  0  0  0
    5.6207   -3.3268   21.9109 H   0  0  0  0  0  0  0  0  0  0  0  0
    3.2733   -3.3107   22.6818 H   0  0  0  0  0  0  0  0  0  0  0  0
   -2.6954  -13.0670   24.8465 H   0  0  0  0  0  0  0  0  0  0  0  0
   -2.4818  -12.8560   30.1453 H   0  0  0  0  0  0  0  0  0  0  0  0
   -5.1238  -11.5407   29.2158 H   0  0  0  0  0  0  0  0  0  0  0  0
   -4.3687  -11.4909   30.8610 H   0  0  0  0  0  0  0  0  0  0  0  0
   -4.4525  -14.0085   30.9924 H   0  0  0  0  0  0  0  0  0  0  0  0
   -5.2305  -14.0839   29.3758 H   0  0  0  0  0  0  0  0  0  0  0  0
   -0.8877  -12.6158   28.7694 H   0  0  0  0  0  0  0  0  0  0  0  0
  1  2  1  0
  2  3  1  0
  3  4  1  0
  4  5  2  0
  4  6  1  0
  6  7  1  0
  7  8  2  0
  8  9  1  0
  9 10  1  0
 10 11  2  0
 11 12  1  0
 12 13  2  0
 13 14  1  0
 14 15  2  0
  2 16  1  0
 16 17  1  0
 17 18  2  0
 18 19  1  0
 19 20  1  0
 20 21  1  0
 21 22  1  0
 19 23  1  0
 15  7  1  0
 23 16  2  0
 14  9  1  0
 22 20  1  0
  1 24  1  0
  1 25  1  0
  1 26  1  0
  2 27  1  0
  3 28  1  0
  6 29  1  0
  6 30  1  0
  8 31  1  0
 10 32  1  0
 11 33  1  0
 12 34  1  0
 13 35  1  0
 17 36  1  0
 20 37  1  0
 21 38  1  0
 21 39  1  0
 22 40  1  0
 22 41  1  0
 23 42  1  0
M  END
>  <Energy>  (705) 
373.25256830532311

>  <compound_id>  (705) 
55960

>  <target_id>  (705) 
1

>  <reference_id>  (705) 
96

>  <inspiration_ids>  (705) 
[96, 103]

>  <energy_score>  (705) 
303.9595666234122

>  <distance_score>  (705) 
14.10281244362755

>  <path>  (705) 
/opt/xchem-fragalysis-2/maxwin/BulkDock/SCRATCH/511022/C55960-P96/C55960-P96.minimised.mol

>  <scratch_subdir>  (705) 
/opt/xchem-fragalysis-2/maxwin/BulkDock/SCRATCH/511022/C55960-P96

>  <fragmenstein_runtime>  (705) 
22.103289365768433

>  <fragmenstein_outcome>  (705) 
too moved

>  <fragmenstein_mode>  (705) 
expansion

>  <fragmenstein_error>  (705) 


$$$$
C55960-P103
     RDKit          3D

 42 45  0  0  0  0  0  0  0  0999 V2000
   -0.6159  -14.7969   22.2632 C   0  0  0  0  0  0  0  0  0  0  0  0
   -0.5202  -13.9845   23.5616 C   0  0  0  0  0  0  0  0  0  0  0  0
    0.1120  -12.1853   22.7891 N   0  0  0  0  0  0  0  0  0  0  0  0
   -0.7371  -10.9693   21.7479 C   0  0  0  0  0  0  0  0  0  0  0  0
   -1.8606  -11.0897   21.2385 O   0  0  0  0  0  0  0  0  0  0  0  0
   -0.0581   -9.3433   21.4695 C   0  0  0  0  0  0  0  0  0  0  0  0
    1.2302   -8.5018   20.8915 C   0  0  0  0  0  0  0  0  0  0  0  0
    2.2410   -7.8101   21.5807 C   0  0  0  0  0  0  0  0  0  0  0  0
    3.0696   -7.2061   20.6559 N   0  0  0  0  0  0  0  0  0  0  0  0
    4.3319   -6.6164   20.8147 C   0  0  0  0  0  0  0  0  0  0  0  0
    4.9913   -6.1627   19.7328 C   0  0  0  0  0  0  0  0  0  0  0  0
    4.3526   -6.2745   18.4289 C   0  0  0  0  0  0  0  0  0  0  0  0
    3.1158   -6.7950   18.2933 C   0  0  0  0  0  0  0  0  0  0  0  0
    2.4297   -7.3190   19.4332 C   0  0  0  0  0  0  0  0  0  0  0  0
    1.3046   -8.0053   19.5593 N   0  0  0  0  0  0  0  0  0  0  0  0
   -1.7744  -14.6269   25.0325 C   0  0  0  0  0  0  0  0  0  0  0  0
   -2.8051  -15.5024   24.6693 C   0  0  0  0  0  0  0  0  0  0  0  0
   -2.8592  -16.6535   25.3116 N   0  0  0  0  0  0  0  0  0  0  0  0
   -2.6827  -16.6077   26.6418 N   0  0  0  0  0  0  0  0  0  0  0  0
   -2.0064  -17.6836   27.3353 C   0  0  0  0  0  0  0  0  0  0  0  0
   -1.4987  -18.6663   26.4606 C   0  0  0  0  0  0  0  0  0  0  0  0
   -2.2035  -19.2258   27.5701 C   0  0  0  0  0  0  0  0  0  0  0  0
   -2.1826  -15.0070   26.5860 C   0  0  0  0  0  0  0  0  0  0  0  0
   -1.5691  -14.7054   21.6098 H   0  0  0  0  0  0  0  0  0  0  0  0
   -0.4522  -15.8747   21.9360 H   0  0  0  0  0  0  0  0  0  0  0  0
    0.4006  -14.7563   22.0057 H   0  0  0  0  0  0  0  0  0  0  0  0
   -1.3722  -14.6158   23.3194 H   0  0  0  0  0  0  0  0  0  0  0  0
    1.0015  -11.7748   23.1430 H   0  0  0  0  0  0  0  0  0  0  0  0
   -0.8395   -8.9450   20.7945 H   0  0  0  0  0  0  0  0  0  0  0  0
   -0.2932   -8.8081   22.3960 H   0  0  0  0  0  0  0  0  0  0  0  0
    2.4543   -7.7437   22.6329 H   0  0  0  0  0  0  0  0  0  0  0  0
    4.7287   -6.5773   21.8200 H   0  0  0  0  0  0  0  0  0  0  0  0
    5.9711   -5.7095   19.8085 H   0  0  0  0  0  0  0  0  0  0  0  0
    4.8866   -5.9212   17.5546 H   0  0  0  0  0  0  0  0  0  0  0  0
    2.6300   -6.8797   17.3279 H   0  0  0  0  0  0  0  0  0  0  0  0
   -3.3802  -15.4159   23.7688 H   0  0  0  0  0  0  0  0  0  0  0  0
   -1.1157  -17.2479   27.7268 H   0  0  0  0  0  0  0  0  0  0  0  0
   -2.1080  -18.7778   25.5947 H   0  0  0  0  0  0  0  0  0  0  0  0
   -0.4459  -18.5453   26.3405 H   0  0  0  0  0  0  0  0  0  0  0  0
   -1.6587  -19.7313   28.3543 H   0  0  0  0  0  0  0  0  0  0  0  0
   -3.0104  -19.8325   27.1785 H   0  0  0  0  0  0  0  0  0  0  0  0
   -1.7982  -14.9357   27.6034 H   0  0  0  0  0  0  0  0  0  0  0  0
  1  2  1  0
  2  3  1  0
  3  4  1  0
  4  5  2  0
  4  6  1  0
  6  7  1  0
  7  8  2  0
  8  9  1  0
  9 10  1  0
 10 11  2  0
 11 12  1  0
 12 13  2  0
 13 14  1  0
 14 15  2  0
  2 16  1  0
 16 17  1  0
 17 18  2  0
 18 19  1  0
 19 20  1  0
 20 21  1  0
 21 22  1  0
 19 23  1  0
 15  7  1  0
 23 16  2  0
 14  9  1  0
 22 20  1  0
  1 24  1  0
  1 25  1  0
  1 26  1  0
  2 27  1  0
  3 28  1  0
  6 29  1  0
  6 30  1  0
  8 31  1  0
 10 32  1  0
 11 33  1  0
 12 34  1  0
 13 35  1  0
 17 36  1  0
 20 37  1  0
 21 38  1  0
 21 39  1  0
 22 40  1  0
 22 41  1  0
 23 42  1  0
M  END
>  <Energy>  (706) 
656.85776362082584

>  <compound_id>  (706) 
55960

>  <target_id>  (706) 
1

>  <reference_id>  (706) 
103

>  <inspiration_ids>  (706) 
[96, 103]

>  <energy_score>  (706) 
587.5647619389067

>  <distance_score>  (706) 
13.467996937032877

>  <path>  (706) 
/opt/xchem-fragalysis-2/maxwin/BulkDock/SCRATCH/511022/C55960-P103/C55960-P103.minimised.mol

>  <scratch_subdir>  (706) 
/opt/xchem-fragalysis-2/maxwin/BulkDock/SCRATCH/511022/C55960-P103

>  <fragmenstein_runtime>  (706) 
45.74324107170105

>  <fragmenstein_outcome>  (706) 
too moved

>  <fragmenstein_mode>  (706) 
expansion

>  <fragmenstein_error>  (706) 


$$$$
C55962-P96
     RDKit          3D

 47 49  0  0  0  0  0  0  0  0999 V2000
    2.9204  -13.7239   27.9450 C   0  0  0  0  0  0  0  0  0  0  0  0
    3.4214  -14.2298   26.6450 N   0  0  0  0  0  0  0  0  0  0  0  0
    2.9905  -15.6583   27.3012 C   0  0  0  0  0  0  0  0  0  0  0  0
    1.4833  -16.2836   27.3201 C   0  0  0  0  0  0  0  0  0  0  0  0
    0.5260  -16.4520   28.4102 C   0  0  0  0  0  0  0  0  0  0  0  0
   -0.4966  -17.2999   27.9660 C   0  0  0  0  0  0  0  0  0  0  0  0
   -1.8093  -17.8897   28.5553 C   0  0  0  0  0  0  0  0  0  0  0  0
   -3.0018  -17.2484   27.8169 C   0  0  0  0  0  0  0  0  0  0  0  0
   -1.8648  -19.4257   28.3710 C   0  0  0  0  0  0  0  0  0  0  0  0
   -1.9680  -17.6062   30.0606 C   0  0  0  0  0  0  0  0  0  0  0  0
   -0.1172  -17.5810   26.6775 N   0  0  0  0  0  0  0  0  0  0  0  0
    1.0498  -17.0317   26.2898 N   0  0  0  0  0  0  0  0  0  0  0  0
    4.7966  -13.6527   26.3544 C   0  0  0  0  0  0  0  0  0  0  0  0
    5.8959  -14.0789   26.6234 O   0  0  0  0  0  0  0  0  0  0  0  0
    4.6965  -12.2533   25.5773 C   0  0  0  0  0  0  0  0  0  0  0  0
    5.9339  -11.4160   24.9972 C   0  0  0  0  0  0  0  0  0  0  0  0
    7.3146  -11.4226   25.1624 C   0  0  0  0  0  0  0  0  0  0  0  0
    7.8627  -10.4668   24.3006 N   0  0  0  0  0  0  0  0  0  0  0  0
    9.1957  -10.1187   24.0395 C   0  0  0  0  0  0  0  0  0  0  0  0
    9.4754   -9.1644   23.1294 C   0  0  0  0  0  0  0  0  0  0  0  0
    8.3791   -8.5067   22.4349 C   0  0  0  0  0  0  0  0  0  0  0  0
    7.0975   -8.8377   22.6919 C   0  0  0  0  0  0  0  0  0  0  0  0
    6.7970   -9.8558   23.6560 C   0  0  0  0  0  0  0  0  0  0  0  0
    5.6595  -10.4034   24.0457 N   0  0  0  0  0  0  0  0  0  0  0  0
    3.0003  -12.6303   27.8864 H   0  0  0  0  0  0  0  0  0  0  0  0
    1.8542  -13.8983   28.1243 H   0  0  0  0  0  0  0  0  0  0  0  0
    3.5685  -13.9709   28.7983 H   0  0  0  0  0  0  0  0  0  0  0  0
    3.5082  -15.8761   28.2503 H   0  0  0  0  0  0  0  0  0  0  0  0
    3.5162  -16.3362   26.6080 H   0  0  0  0  0  0  0  0  0  0  0  0
    0.6142  -16.0343   29.4039 H   0  0  0  0  0  0  0  0  0  0  0  0
   -2.9911  -16.1570   27.9209 H   0  0  0  0  0  0  0  0  0  0  0  0
   -3.9559  -17.6115   28.2122 H   0  0  0  0  0  0  0  0  0  0  0  0
   -2.9826  -17.4754   26.7446 H   0  0  0  0  0  0  0  0  0  0  0  0
   -0.9920  -19.9056   28.8288 H   0  0  0  0  0  0  0  0  0  0  0  0
   -1.8759  -19.7056   27.3117 H   0  0  0  0  0  0  0  0  0  0  0  0
   -2.7582  -19.8484   28.8328 H   0  0  0  0  0  0  0  0  0  0  0  0
   -2.9053  -18.0170   30.4525 H   0  0  0  0  0  0  0  0  0  0  0  0
   -1.9672  -16.5287   30.2621 H   0  0  0  0  0  0  0  0  0  0  0  0
   -1.1427  -18.0455   30.6330 H   0  0  0  0  0  0  0  0  0  0  0  0
   -0.5980  -18.1719   26.0077 H   0  0  0  0  0  0  0  0  0  0  0  0
    4.1643  -11.5627   26.2409 H   0  0  0  0  0  0  0  0  0  0  0  0
    4.0706  -12.4546   24.7024 H   0  0  0  0  0  0  0  0  0  0  0  0
    7.9548  -12.0435   25.7728 H   0  0  0  0  0  0  0  0  0  0  0  0
    9.9577  -10.6570   24.5883 H   0  0  0  0  0  0  0  0  0  0  0  0
   10.4956   -8.8783   22.8974 H   0  0  0  0  0  0  0  0  0  0  0  0
    8.6218   -7.7441   21.7030 H   0  0  0  0  0  0  0  0  0  0  0  0
    6.2756   -8.3595   22.1725 H   0  0  0  0  0  0  0  0  0  0  0  0
  1  2  1  0
  2  3  1  0
  3  4  1  0
  4  5  1  0
  5  6  2  0
  6  7  1  0
  7  8  1  0
  7  9  1  0
  7 10  1  0
  6 11  1  0
 11 12  1  0
  2 13  1  0
 13 14  2  0
 13 15  1  0
 15 16  1  0
 16 17  2  0
 17 18  1  0
 18 19  1  0
 19 20  2  0
 20 21  1  0
 21 22  2  0
 22 23  1  0
 23 24  2  0
 12  4  2  0
 24 16  1  0
 23 18  1  0
  1 25  1  0
  1 26  1  0
  1 27  1  0
  3 28  1  0
  3 29  1  0
  5 30  1  0
  8 31  1  0
  8 32  1  0
  8 33  1  0
  9 34  1  0
  9 35  1  0
  9 36  1  0
 10 37  1  0
 10 38  1  0
 10 39  1  0
 11 40  1  0
 15 41  1  0
 15 42  1  0
 17 43  1  0
 19 44  1  0
 20 45  1  0
 21 46  1  0
 22 47  1  0
M  END
>  <Energy>  (707) 
170.25629603950566

>  <compound_id>  (707) 
55962

>  <target_id>  (707) 
1

>  <reference_id>  (707) 
96

>  <inspiration_ids>  (707) 
[96, 103]

>  <energy_score>  (707) 
69.64396213273358

>  <distance_score>  (707) 
13.701766008085425

>  <path>  (707) 
/opt/xchem-fragalysis-2/maxwin/BulkDock/SCRATCH/511022/C55962-P96/C55962-P96.minimised.mol

>  <scratch_subdir>  (707) 
/opt/xchem-fragalysis-2/maxwin/BulkDock/SCRATCH/511022/C55962-P96

>  <fragmenstein_runtime>  (707) 
25.279056072235107

>  <fragmenstein_outcome>  (707) 
too moved

>  <fragmenstein_mode>  (707) 
expansion

>  <fragmenstein_error>  (707) 


$$$$
C55962-P103
     RDKit          3D

 47 49  0  0  0  0  0  0  0  0999 V2000
   -3.0546  -11.4236   18.8161 C   0  0  0  0  0  0  0  0  0  0  0  0
   -1.8116  -11.4874   19.5051 N   0  0  0  0  0  0  0  0  0  0  0  0
   -2.4829  -13.0737   20.0458 C   0  0  0  0  0  0  0  0  0  0  0  0
   -2.2556  -14.9779   20.5484 C   0  0  0  0  0  0  0  0  0  0  0  0
   -2.9396  -16.3447   20.1534 C   0  0  0  0  0  0  0  0  0  0  0  0
   -3.0329  -17.1787   21.2974 C   0  0  0  0  0  0  0  0  0  0  0  0
   -3.8664  -18.4130   21.7641 C   0  0  0  0  0  0  0  0  0  0  0  0
   -3.8733  -19.4586   20.6373 C   0  0  0  0  0  0  0  0  0  0  0  0
   -5.3185  -17.9975   22.0945 C   0  0  0  0  0  0  0  0  0  0  0  0
   -3.3267  -19.0758   23.0632 C   0  0  0  0  0  0  0  0  0  0  0  0
   -2.0761  -16.6198   22.0814 N   0  0  0  0  0  0  0  0  0  0  0  0
   -1.9376  -15.3105   21.8541 N   0  0  0  0  0  0  0  0  0  0  0  0
   -1.5824  -10.2118   20.2622 C   0  0  0  0  0  0  0  0  0  0  0  0
   -1.8776   -9.9116   21.4022 O   0  0  0  0  0  0  0  0  0  0  0  0
   -0.8623   -8.8331   19.3066 C   0  0  0  0  0  0  0  0  0  0  0  0
    0.5486   -8.6195   18.2057 C   0  0  0  0  0  0  0  0  0  0  0  0
    0.6019   -8.2320   16.8772 C   0  0  0  0  0  0  0  0  0  0  0  0
    1.8969   -8.0796   16.4112 N   0  0  0  0  0  0  0  0  0  0  0  0
    2.3910   -7.7517   15.0948 C   0  0  0  0  0  0  0  0  0  0  0  0
    3.6852   -7.9826   14.8127 C   0  0  0  0  0  0  0  0  0  0  0  0
    4.5716   -8.4225   15.8709 C   0  0  0  0  0  0  0  0  0  0  0  0
    4.1231   -8.6733   17.1186 C   0  0  0  0  0  0  0  0  0  0  0  0
    2.7108   -8.5537   17.4550 C   0  0  0  0  0  0  0  0  0  0  0  0
    1.9334   -8.7953   18.5193 N   0  0  0  0  0  0  0  0  0  0  0  0
   -3.0247  -11.9994   17.8959 H   0  0  0  0  0  0  0  0  0  0  0  0
   -3.0882  -10.4080   18.4042 H   0  0  0  0  0  0  0  0  0  0  0  0
   -3.9167  -11.4835   19.4830 H   0  0  0  0  0  0  0  0  0  0  0  0
   -2.1953  -13.4084   19.0434 H   0  0  0  0  0  0  0  0  0  0  0  0
   -1.7852  -12.8538   20.8046 H   0  0  0  0  0  0  0  0  0  0  0  0
   -3.5043  -16.5468   19.2533 H   0  0  0  0  0  0  0  0  0  0  0  0
   -4.3233  -19.0581   19.7216 H   0  0  0  0  0  0  0  0  0  0  0  0
   -2.8547  -19.7803   20.3910 H   0  0  0  0  0  0  0  0  0  0  0  0
   -4.4448  -20.3488   20.9236 H   0  0  0  0  0  0  0  0  0  0  0  0
   -5.9249  -18.8577   22.3986 H   0  0  0  0  0  0  0  0  0  0  0  0
   -5.8021  -17.5429   21.2220 H   0  0  0  0  0  0  0  0  0  0  0  0
   -5.3447  -17.2566   22.9020 H   0  0  0  0  0  0  0  0  0  0  0  0
   -2.2908  -19.4081   22.9298 H   0  0  0  0  0  0  0  0  0  0  0  0
   -3.3468  -18.3782   23.9084 H   0  0  0  0  0  0  0  0  0  0  0  0
   -3.9235  -19.9528   23.3395 H   0  0  0  0  0  0  0  0  0  0  0  0
   -1.6630  -16.9894   22.9325 H   0  0  0  0  0  0  0  0  0  0  0  0
   -1.7322   -8.4493   18.7800 H   0  0  0  0  0  0  0  0  0  0  0  0
   -0.4211   -8.2939   20.1511 H   0  0  0  0  0  0  0  0  0  0  0  0
   -0.1299   -8.1148   16.1290 H   0  0  0  0  0  0  0  0  0  0  0  0
    1.6587   -7.4455   14.3588 H   0  0  0  0  0  0  0  0  0  0  0  0
    4.0647   -7.9056   13.8016 H   0  0  0  0  0  0  0  0  0  0  0  0
    5.6098   -8.5802   15.6055 H   0  0  0  0  0  0  0  0  0  0  0  0
    4.8180   -9.0185   17.8664 H   0  0  0  0  0  0  0  0  0  0  0  0
  1  2  1  0
  2  3  1  0
  3  4  1  0
  4  5  1  0
  5  6  2  0
  6  7  1  0
  7  8  1  0
  7  9  1  0
  7 10  1  0
  6 11  1  0
 11 12  1  0
  2 13  1  0
 13 14  2  0
 13 15  1  0
 15 16  1  0
 16 17  2  0
 17 18  1  0
 18 19  1  0
 19 20  2  0
 20 21  1  0
 21 22  2  0
 22 23  1  0
 23 24  2  0
 12  4  2  0
 24 16  1  0
 23 18  1  0
  1 25  1  0
  1 26  1  0
  1 27  1  0
  3 28  1  0
  3 29  1  0
  5 30  1  0
  8 31  1  0
  8 32  1  0
  8 33  1  0
  9 34  1  0
  9 35  1  0
  9 36  1  0
 10 37  1  0
 10 38  1  0
 10 39  1  0
 11 40  1  0
 15 41  1  0
 15 42  1  0
 17 43  1  0
 19 44  1  0
 20 45  1  0
 21 46  1  0
 22 47  1  0
M  END
>  <Energy>  (708) 
392.96419100642862

>  <compound_id>  (708) 
55962

>  <target_id>  (708) 
1

>  <reference_id>  (708) 
103

>  <inspiration_ids>  (708) 
[96, 103]

>  <energy_score>  (708) 
292.3518570996498

>  <distance_score>  (708) 
14.015615106056423

>  <path>  (708) 
/opt/xchem-fragalysis-2/maxwin/BulkDock/SCRATCH/511022/C55962-P103/C55962-P103.minimised.mol

>  <scratch_subdir>  (708) 
/opt/xchem-fragalysis-2/maxwin/BulkDock/SCRATCH/511022/C55962-P103

>  <fragmenstein_runtime>  (708) 
34.367717027664185

>  <fragmenstein_outcome>  (708) 
too moved

>  <fragmenstein_mode>  (708) 
expansion

>  <fragmenstein_error>  (708) 


$$$$
C55964-P96
     RDKit          3D

 36 38  0  0  0  0  0  0  0  0999 V2000
    2.5233  -12.7383   21.6286 C   0  0  0  0  0  0  0  0  0  0  0  0
    2.4734  -11.3640   22.3384 C   0  0  0  0  0  0  0  0  0  0  0  0
    3.8436  -11.7313   23.6234 C   0  0  0  0  0  0  0  0  0  0  0  0
    5.2205  -10.5785   23.4371 N   0  0  0  0  0  0  0  0  0  0  0  0
    5.6732   -9.4798   24.2824 C   0  0  0  0  0  0  0  0  0  0  0  0
    5.2925   -9.1148   25.3582 O   0  0  0  0  0  0  0  0  0  0  0  0
    6.7208   -8.6837   23.5564 C   0  0  0  0  0  0  0  0  0  0  0  0
    7.6270   -9.0354   22.5387 C   0  0  0  0  0  0  0  0  0  0  0  0
    8.3203   -7.9592   22.0047 N   0  0  0  0  0  0  0  0  0  0  0  0
    7.9241   -6.9725   22.7509 C   0  0  0  0  0  0  0  0  0  0  0  0
    8.2921   -5.2741   22.7822 S   0  0  0  0  0  0  0  0  0  0  0  0
    7.1244   -5.0969   24.0977 C   0  0  0  0  0  0  0  0  0  0  0  0
    6.5346   -6.2592   24.4477 C   0  0  0  0  0  0  0  0  0  0  0  0
    6.9859   -7.3214   23.6879 N   0  0  0  0  0  0  0  0  0  0  0  0
    1.0579  -11.3543   22.5754 N   0  0  0  0  0  0  0  0  0  0  0  0
    0.1903  -11.7680   23.8708 C   0  0  0  0  0  0  0  0  0  0  0  0
    0.6638  -12.0594   24.8992 O   0  0  0  0  0  0  0  0  0  0  0  0
   -1.8275  -12.0480   23.8068 C   0  0  0  0  0  0  0  0  0  0  0  0
   -2.7544  -13.2696   24.0032 C   0  0  0  0  0  0  0  0  0  0  0  0
   -4.0270  -13.1034   24.5498 C   0  0  0  0  0  0  0  0  0  0  0  0
   -4.8769  -14.0999   24.8658 F   0  0  0  0  0  0  0  0  0  0  0  0
   -4.3489  -11.8428   24.4170 N   0  0  0  0  0  0  0  0  0  0  0  0
   -3.2093  -11.2420   23.9444 N   0  0  0  0  0  0  0  0  0  0  0  0
    1.6083  -13.2409   21.7754 H   0  0  0  0  0  0  0  0  0  0  0  0
    2.4157  -12.7022   20.5567 H   0  0  0  0  0  0  0  0  0  0  0  0
    3.3564  -13.3971   21.8652 H   0  0  0  0  0  0  0  0  0  0  0  0
    2.6009  -10.7275   21.4780 H   0  0  0  0  0  0  0  0  0  0  0  0
    3.5083  -11.8227   24.6683 H   0  0  0  0  0  0  0  0  0  0  0  0
    4.2433  -12.7065   23.3641 H   0  0  0  0  0  0  0  0  0  0  0  0
    5.7145  -10.5407   22.5561 H   0  0  0  0  0  0  0  0  0  0  0  0
    7.8032  -10.0286   22.1408 H   0  0  0  0  0  0  0  0  0  0  0  0
    6.9326   -4.1336   24.5534 H   0  0  0  0  0  0  0  0  0  0  0  0
    5.7944   -6.4100   25.2195 H   0  0  0  0  0  0  0  0  0  0  0  0
    0.4476  -11.0675   21.8764 H   0  0  0  0  0  0  0  0  0  0  0  0
   -2.6054  -14.1743   23.4396 H   0  0  0  0  0  0  0  0  0  0  0  0
   -3.3008  -10.2487   23.8156 H   0  0  0  0  0  0  0  0  0  0  0  0
  1  2  1  0
  2  3  1  0
  3  4  1  0
  4  5  1  0
  5  6  2  0
  5  7  1  0
  7  8  2  0
  8  9  1  0
  9 10  2  0
 10 11  1  0
 11 12  1  0
 12 13  2  0
 13 14  1  0
  2 15  1  0
 15 16  1  0
 16 17  2  0
 16 18  1  0
 18 19  2  0
 19 20  1  0
 20 21  1  0
 20 22  2  0
 22 23  1  0
 14  7  1  0
 23 18  1  0
 14 10  1  0
  1 24  1  0
  1 25  1  0
  1 26  1  0
  2 27  1  0
  3 28  1  0
  3 29  1  0
  4 30  1  0
  8 31  1  0
 12 32  1  0
 13 33  1  0
 15 34  1  0
 19 35  1  0
 23 36  1  0
M  END
>  <Energy>  (709) 
264.4507064515214

>  <compound_id>  (709) 
55964

>  <target_id>  (709) 
1

>  <reference_id>  (709) 
96

>  <inspiration_ids>  (709) 
[96, 103]

>  <energy_score>  (709) 
278.06790708476865

>  <distance_score>  (709) 
13.496537896937447

>  <path>  (709) 
/opt/xchem-fragalysis-2/maxwin/BulkDock/SCRATCH/511022/C55964-P96/C55964-P96.minimised.mol

>  <scratch_subdir>  (709) 
/opt/xchem-fragalysis-2/maxwin/BulkDock/SCRATCH/511022/C55964-P96

>  <fragmenstein_runtime>  (709) 
15.759488344192505

>  <fragmenstein_outcome>  (709) 
too moved

>  <fragmenstein_mode>  (709) 
expansion

>  <fragmenstein_error>  (709) 


$$$$
C55964-P103
     RDKit          3D

 36 38  0  0  0  0  0  0  0  0999 V2000
    9.7855  -12.2692   16.8769 C   0  0  0  0  0  0  0  0  0  0  0  0
    8.5725  -11.3755   16.5880 C   0  0  0  0  0  0  0  0  0  0  0  0
    8.8736  -10.5464   15.2716 C   0  0  0  0  0  0  0  0  0  0  0  0
    9.8226   -9.4004   15.4464 N   0  0  0  0  0  0  0  0  0  0  0  0
    9.6205   -7.7508   15.1762 C   0  0  0  0  0  0  0  0  0  0  0  0
    8.6509   -7.2321   14.6982 O   0  0  0  0  0  0  0  0  0  0  0  0
   11.0210   -6.5017   15.6817 C   0  0  0  0  0  0  0  0  0  0  0  0
   12.3125   -6.6544   16.1556 C   0  0  0  0  0  0  0  0  0  0  0  0
   13.0950   -5.5826   16.6394 N   0  0  0  0  0  0  0  0  0  0  0  0
   12.3787   -4.5393   16.4391 C   0  0  0  0  0  0  0  0  0  0  0  0
   12.8234   -2.8531   16.4383 S   0  0  0  0  0  0  0  0  0  0  0  0
   11.4073   -2.5391   15.4706 C   0  0  0  0  0  0  0  0  0  0  0  0
   10.6837   -3.6462   15.2309 C   0  0  0  0  0  0  0  0  0  0  0  0
   11.2140   -4.8228   15.7686 N   0  0  0  0  0  0  0  0  0  0  0  0
    7.3012  -12.1787   16.6529 N   0  0  0  0  0  0  0  0  0  0  0  0
    6.9032  -13.2652   17.5392 C   0  0  0  0  0  0  0  0  0  0  0  0
    7.5194  -13.8438   18.3861 O   0  0  0  0  0  0  0  0  0  0  0  0
    5.5075  -13.7456   17.3606 C   0  0  0  0  0  0  0  0  0  0  0  0
    5.0335  -15.0627   17.3975 C   0  0  0  0  0  0  0  0  0  0  0  0
    3.6307  -14.9852   17.3840 C   0  0  0  0  0  0  0  0  0  0  0  0
    2.8182  -16.0499   17.4382 F   0  0  0  0  0  0  0  0  0  0  0  0
    3.1947  -13.7291   17.2932 N   0  0  0  0  0  0  0  0  0  0  0  0
    4.3434  -13.0102   17.4664 N   0  0  0  0  0  0  0  0  0  0  0  0
    9.7258  -12.7098   17.8766 H   0  0  0  0  0  0  0  0  0  0  0  0
    9.8499  -13.0883   16.1525 H   0  0  0  0  0  0  0  0  0  0  0  0
   10.7198  -11.6999   16.8357 H   0  0  0  0  0  0  0  0  0  0  0  0
    8.4804  -10.6772   17.4260 H   0  0  0  0  0  0  0  0  0  0  0  0
    9.2996  -11.1967   14.5003 H   0  0  0  0  0  0  0  0  0  0  0  0
    7.9408  -10.1328   14.8746 H   0  0  0  0  0  0  0  0  0  0  0  0
   10.7662   -9.5690   15.7816 H   0  0  0  0  0  0  0  0  0  0  0  0
   12.6448   -7.6199   15.9267 H   0  0  0  0  0  0  0  0  0  0  0  0
   11.1407   -1.5451   15.1335 H   0  0  0  0  0  0  0  0  0  0  0  0
    9.7421   -3.6210   14.7433 H   0  0  0  0  0  0  0  0  0  0  0  0
    6.5478  -11.9893   16.0025 H   0  0  0  0  0  0  0  0  0  0  0  0
    5.6410  -15.9518   17.4733 H   0  0  0  0  0  0  0  0  0  0  0  0
    4.2640  -12.0210   17.7099 H   0  0  0  0  0  0  0  0  0  0  0  0
  1  2  1  0
  2  3  1  0
  3  4  1  0
  4  5  1  0
  5  6  2  0
  5  7  1  0
  7  8  2  0
  8  9  1  0
  9 10  2  0
 10 11  1  0
 11 12  1  0
 12 13  2  0
 13 14  1  0
  2 15  1  0
 15 16  1  0
 16 17  2  0
 16 18  1  0
 18 19  2  0
 19 20  1  0
 20 21  1  0
 20 22  2  0
 22 23  1  0
 14  7  1  0
 23 18  1  0
 14 10  1  0
  1 24  1  0
  1 25  1  0
  1 26  1  0
  2 27  1  0
  3 28  1  0
  3 29  1  0
  4 30  1  0
  8 31  1  0
 12 32  1  0
 13 33  1  0
 15 34  1  0
 19 35  1  0
 23 36  1  0
M  END
>  <Energy>  (710) 
129.09537868936397

>  <compound_id>  (710) 
55964

>  <target_id>  (710) 
1

>  <reference_id>  (710) 
103

>  <inspiration_ids>  (710) 
[96, 103]

>  <energy_score>  (710) 
142.71257932260352

>  <distance_score>  (710) 
14.325273814616578

>  <path>  (710) 
/opt/xchem-fragalysis-2/maxwin/BulkDock/SCRATCH/511022/C55964-P103/C55964-P103.minimised.mol

>  <scratch_subdir>  (710) 
/opt/xchem-fragalysis-2/maxwin/BulkDock/SCRATCH/511022/C55964-P103

>  <fragmenstein_runtime>  (710) 
30.066789627075195

>  <fragmenstein_outcome>  (710) 
too moved

>  <fragmenstein_mode>  (710) 
expansion

>  <fragmenstein_error>  (710) 


$$$$
C55965-P96
     RDKit          3D

 42 44  0  0  0  0  0  0  0  0999 V2000
   -3.3407  -14.6605   24.5511 C   0  0  0  0  0  0  0  0  0  0  0  0
   -2.7064  -13.1239   25.0735 C   0  0  0  0  0  0  0  0  0  0  0  0
   -1.6060  -12.0441   23.8403 C   0  0  0  0  0  0  0  0  0  0  0  0
    0.1372  -11.2423   24.6064 N   0  0  0  0  0  0  0  0  0  0  0  0
    0.4739   -9.6233   25.4137 C   0  0  0  0  0  0  0  0  0  0  0  0
   -0.3445   -8.7318   25.4983 O   0  0  0  0  0  0  0  0  0  0  0  0
    1.9994   -9.1555   26.3827 C   0  0  0  0  0  0  0  0  0  0  0  0
    1.8467   -7.9133   26.8114 C   0  0  0  0  0  0  0  0  0  0  0  0
    2.6341   -7.1601   25.9440 N   0  0  0  0  0  0  0  0  0  0  0  0
    3.8964   -7.4208   26.0192 C   0  0  0  0  0  0  0  0  0  0  0  0
    5.0885   -6.7811   25.5346 C   0  0  0  0  0  0  0  0  0  0  0  0
    6.1154   -7.5170   25.0897 C   0  0  0  0  0  0  0  0  0  0  0  0
    5.9729   -8.9431   25.0884 C   0  0  0  0  0  0  0  0  0  0  0  0
    4.8796   -9.4877   25.6679 C   0  0  0  0  0  0  0  0  0  0  0  0
    3.8115   -8.7446   26.2562 N   0  0  0  0  0  0  0  0  0  0  0  0
   -2.6261  -13.5414   26.5043 N   0  0  0  0  0  0  0  0  0  0  0  0
   -3.6594  -13.9522   27.4265 C   0  0  0  0  0  0  0  0  0  0  0  0
   -4.8462  -13.9814   27.3015 O   0  0  0  0  0  0  0  0  0  0  0  0
   -3.1893  -14.5210   28.6791 C   0  0  0  0  0  0  0  0  0  0  0  0
   -2.1276  -14.2942   29.5240 C   0  0  0  0  0  0  0  0  0  0  0  0
   -2.2425  -15.2639   30.5442 C   0  0  0  0  0  0  0  0  0  0  0  0
   -3.2742  -16.0833   30.3634 N   0  0  0  0  0  0  0  0  0  0  0  0
   -3.8446  -15.6190   29.2357 N   0  0  0  0  0  0  0  0  0  0  0  0
   -4.9634  -16.3524   28.6841 C   0  0  0  0  0  0  0  0  0  0  0  0
   -2.7862  -15.5407   24.9169 H   0  0  0  0  0  0  0  0  0  0  0  0
   -3.4189  -14.6736   23.4691 H   0  0  0  0  0  0  0  0  0  0  0  0
   -4.3225  -14.8700   24.9987 H   0  0  0  0  0  0  0  0  0  0  0  0
   -3.5280  -12.4525   25.1486 H   0  0  0  0  0  0  0  0  0  0  0  0
   -1.3387  -12.7596   23.0343 H   0  0  0  0  0  0  0  0  0  0  0  0
   -2.4265  -11.3138   23.7890 H   0  0  0  0  0  0  0  0  0  0  0  0
    0.9833  -11.7811   24.5842 H   0  0  0  0  0  0  0  0  0  0  0  0
    0.8588   -7.6877   27.1817 H   0  0  0  0  0  0  0  0  0  0  0  0
    5.1716   -5.7058   25.5261 H   0  0  0  0  0  0  0  0  0  0  0  0
    7.0270   -7.0680   24.7116 H   0  0  0  0  0  0  0  0  0  0  0  0
    6.7136   -9.5479   24.5747 H   0  0  0  0  0  0  0  0  0  0  0  0
    4.6257  -10.5222   25.5799 H   0  0  0  0  0  0  0  0  0  0  0  0
   -1.7359  -13.5707   26.9747 H   0  0  0  0  0  0  0  0  0  0  0  0
   -1.3841  -13.5154   29.4408 H   0  0  0  0  0  0  0  0  0  0  0  0
   -1.6085  -15.4046   31.4103 H   0  0  0  0  0  0  0  0  0  0  0  0
   -4.8047  -16.5054   27.6140 H   0  0  0  0  0  0  0  0  0  0  0  0
   -5.0133  -17.3279   29.1699 H   0  0  0  0  0  0  0  0  0  0  0  0
   -5.8771  -15.7871   28.8792 H   0  0  0  0  0  0  0  0  0  0  0  0
  1  2  1  0
  2  3  1  0
  3  4  1  0
  4  5  1  0
  5  6  2  0
  5  7  1  0
  7  8  2  0
  8  9  1  0
  9 10  2  0
 10 11  1  0
 11 12  2  0
 12 13  1  0
 13 14  2  0
 14 15  1  0
  2 16  1  0
 16 17  1  0
 17 18  2  0
 17 19  1  0
 19 20  2  0
 20 21  1  0
 21 22  2  0
 22 23  1  0
 23 24  1  0
 15  7  1  0
 23 19  1  0
 15 10  1  0
  1 25  1  0
  1 26  1  0
  1 27  1  0
  2 28  1  0
  3 29  1  0
  3 30  1  0
  4 31  1  0
  8 32  1  0
 11 33  1  0
 12 34  1  0
 13 35  1  0
 14 36  1  0
 16 37  1  0
 20 38  1  0
 21 39  1  0
 24 40  1  0
 24 41  1  0
 24 42  1  0
M  END
>  <Energy>  (711) 
437.62633859522361

>  <compound_id>  (711) 
55965

>  <target_id>  (711) 
1

>  <reference_id>  (711) 
96

>  <inspiration_ids>  (711) 
[96, 103]

>  <energy_score>  (711) 
434.90749271366167

>  <distance_score>  (711) 
14.699984093490988

>  <path>  (711) 
/opt/xchem-fragalysis-2/maxwin/BulkDock/SCRATCH/511022/C55965-P96/C55965-P96.minimised.mol

>  <scratch_subdir>  (711) 
/opt/xchem-fragalysis-2/maxwin/BulkDock/SCRATCH/511022/C55965-P96

>  <fragmenstein_runtime>  (711) 
31.244657278060913

>  <fragmenstein_outcome>  (711) 
too moved

>  <fragmenstein_mode>  (711) 
expansion

>  <fragmenstein_error>  (711) 


$$$$
C55965-P103
     RDKit          3D

 42 44  0  0  0  0  0  0  0  0999 V2000
   -2.2051   -8.0566   13.9995 C   0  0  0  0  0  0  0  0  0  0  0  0
   -1.6249   -7.9011   15.4086 C   0  0  0  0  0  0  0  0  0  0  0  0
   -1.4029   -6.3706   15.6999 C   0  0  0  0  0  0  0  0  0  0  0  0
   -0.2731   -5.6837   14.9915 N   0  0  0  0  0  0  0  0  0  0  0  0
    1.0178   -6.1692   14.5801 C   0  0  0  0  0  0  0  0  0  0  0  0
    1.4871   -7.2670   14.6286 O   0  0  0  0  0  0  0  0  0  0  0  0
    1.9303   -5.1466   13.9790 C   0  0  0  0  0  0  0  0  0  0  0  0
    2.7768   -5.4252   12.9035 C   0  0  0  0  0  0  0  0  0  0  0  0
    3.7237   -4.4653   12.6832 N   0  0  0  0  0  0  0  0  0  0  0  0
    3.5496   -3.5993   13.6484 C   0  0  0  0  0  0  0  0  0  0  0  0
    4.3415   -2.4719   14.0121 C   0  0  0  0  0  0  0  0  0  0  0  0
    3.9639   -1.7021   15.0458 C   0  0  0  0  0  0  0  0  0  0  0  0
    2.7383   -1.9703   15.7706 C   0  0  0  0  0  0  0  0  0  0  0  0
    1.9896   -3.0375   15.4349 C   0  0  0  0  0  0  0  0  0  0  0  0
    2.4075   -3.8968   14.4120 N   0  0  0  0  0  0  0  0  0  0  0  0
   -2.4436   -8.6874   16.3972 N   0  0  0  0  0  0  0  0  0  0  0  0
   -2.9820  -10.0396   16.3280 C   0  0  0  0  0  0  0  0  0  0  0  0
   -2.9748  -10.8339   15.4339 O   0  0  0  0  0  0  0  0  0  0  0  0
   -3.6135  -10.5468   17.5968 C   0  0  0  0  0  0  0  0  0  0  0  0
   -3.9984   -9.9470   18.7906 C   0  0  0  0  0  0  0  0  0  0  0  0
   -4.6165  -10.9457   19.5793 C   0  0  0  0  0  0  0  0  0  0  0  0
   -4.6056  -12.1352   18.9850 N   0  0  0  0  0  0  0  0  0  0  0  0
   -3.9848  -11.8861   17.8042 N   0  0  0  0  0  0  0  0  0  0  0  0
   -3.7619  -13.0023   16.9097 C   0  0  0  0  0  0  0  0  0  0  0  0
   -2.2114   -9.1046   13.6850 H   0  0  0  0  0  0  0  0  0  0  0  0
   -1.6145   -7.5025   13.2626 H   0  0  0  0  0  0  0  0  0  0  0  0
   -3.2367   -7.6904   13.9584 H   0  0  0  0  0  0  0  0  0  0  0  0
   -0.6493   -8.3947   15.4227 H   0  0  0  0  0  0  0  0  0  0  0  0
   -1.2402   -6.2281   16.7695 H   0  0  0  0  0  0  0  0  0  0  0  0
   -2.3099   -5.8084   15.4500 H   0  0  0  0  0  0  0  0  0  0  0  0
   -0.3599   -4.7114   14.7247 H   0  0  0  0  0  0  0  0  0  0  0  0
    2.7637   -6.3298   12.3053 H   0  0  0  0  0  0  0  0  0  0  0  0
    5.2492   -2.2673   13.4542 H   0  0  0  0  0  0  0  0  0  0  0  0
    4.5644   -0.8564   15.3578 H   0  0  0  0  0  0  0  0  0  0  0  0
    2.4493   -1.3021   16.5752 H   0  0  0  0  0  0  0  0  0  0  0  0
    1.0778   -3.2876   15.9591 H   0  0  0  0  0  0  0  0  0  0  0  0
   -2.5561   -8.3347   17.3397 H   0  0  0  0  0  0  0  0  0  0  0  0
   -3.8903   -8.9057   19.0579 H   0  0  0  0  0  0  0  0  0  0  0  0
   -5.0746  -10.8331   20.5530 H   0  0  0  0  0  0  0  0  0  0  0  0
   -2.7010  -13.0397   16.6513 H   0  0  0  0  0  0  0  0  0  0  0  0
   -4.3913  -12.8710   16.0268 H   0  0  0  0  0  0  0  0  0  0  0  0
   -4.0371  -13.9315   17.4171 H   0  0  0  0  0  0  0  0  0  0  0  0
  1  2  1  0
  2  3  1  0
  3  4  1  0
  4  5  1  0
  5  6  2  0
  5  7  1  0
  7  8  2  0
  8  9  1  0
  9 10  2  0
 10 11  1  0
 11 12  2  0
 12 13  1  0
 13 14  2  0
 14 15  1  0
  2 16  1  0
 16 17  1  0
 17 18  2  0
 17 19  1  0
 19 20  2  0
 20 21  1  0
 21 22  2  0
 22 23  1  0
 23 24  1  0
 15  7  1  0
 23 19  1  0
 15 10  1  0
  1 25  1  0
  1 26  1  0
  1 27  1  0
  2 28  1  0
  3 29  1  0
  3 30  1  0
  4 31  1  0
  8 32  1  0
 11 33  1  0
 12 34  1  0
 13 35  1  0
 14 36  1  0
 16 37  1  0
 20 38  1  0
 21 39  1  0
 24 40  1  0
 24 41  1  0
 24 42  1  0
M  END
>  <Energy>  (712) 
-3.7949308267719943

>  <compound_id>  (712) 
55965

>  <target_id>  (712) 
1

>  <reference_id>  (712) 
103

>  <inspiration_ids>  (712) 
[96, 103]

>  <energy_score>  (712) 
-6.513776708331818

>  <distance_score>  (712) 
14.496600598165791

>  <path>  (712) 
/opt/xchem-fragalysis-2/maxwin/BulkDock/SCRATCH/511022/C55965-P103/C55965-P103.minimised.mol

>  <scratch_subdir>  (712) 
/opt/xchem-fragalysis-2/maxwin/BulkDock/SCRATCH/511022/C55965-P103

>  <fragmenstein_runtime>  (712) 
43.13994121551514

>  <fragmenstein_outcome>  (712) 
too moved

>  <fragmenstein_mode>  (712) 
expansion

>  <fragmenstein_error>  (712) 


$$$$
C55966-P96
     RDKit          3D

 42 44  0  0  0  0  0  0  0  0999 V2000
    0.6679  -10.1332   23.6488 C   0  0  0  0  0  0  0  0  0  0  0  0
    1.5372  -10.0268   21.8219 C   0  0  0  0  0  0  0  0  0  0  0  0
    2.9119   -8.2971   20.8876 C   0  0  0  0  0  0  0  0  0  0  0  0
    3.3564   -6.3904   19.8705 N   0  0  0  0  0  0  0  0  0  0  0  0
    5.0813   -5.1399   19.6162 C   0  0  0  0  0  0  0  0  0  0  0  0
    5.9921   -5.5411   20.3213 O   0  0  0  0  0  0  0  0  0  0  0  0
    5.8654   -3.5467   18.2975 C   0  0  0  0  0  0  0  0  0  0  0  0
    7.1669   -3.3174   16.7817 C   0  0  0  0  0  0  0  0  0  0  0  0
    8.9594   -3.3272   17.0210 N   0  0  0  0  0  0  0  0  0  0  0  0
   10.2972   -4.0132   17.2254 C   0  0  0  0  0  0  0  0  0  0  0  0
   11.4380   -3.3736   17.4792 C   0  0  0  0  0  0  0  0  0  0  0  0
   11.3864   -1.9953   17.2444 C   0  0  0  0  0  0  0  0  0  0  0  0
   10.1996   -1.4028   17.0553 C   0  0  0  0  0  0  0  0  0  0  0  0
    8.7870   -1.9824   17.2777 C   0  0  0  0  0  0  0  0  0  0  0  0
    6.9337   -2.2170   17.1236 N   0  0  0  0  0  0  0  0  0  0  0  0
    0.5578  -11.9720   22.0840 N   0  0  0  0  0  0  0  0  0  0  0  0
   -1.1962  -12.5514   23.0522 C   0  0  0  0  0  0  0  0  0  0  0  0
   -1.7832  -11.6772   23.6984 O   0  0  0  0  0  0  0  0  0  0  0  0
   -2.2905  -14.0634   23.0835 C   0  0  0  0  0  0  0  0  0  0  0  0
   -3.0404  -15.1507   24.2233 C   0  0  0  0  0  0  0  0  0  0  0  0
   -4.3838  -15.5272   23.9662 C   0  0  0  0  0  0  0  0  0  0  0  0
   -4.7681  -14.6420   23.0806 N   0  0  0  0  0  0  0  0  0  0  0  0
   -3.8823  -13.6704   23.4391 N   0  0  0  0  0  0  0  0  0  0  0  0
   -4.3614  -12.5886   24.3032 C   0  0  0  0  0  0  0  0  0  0  0  0
   -0.3333  -10.0207   24.0297 H   0  0  0  0  0  0  0  0  0  0  0  0
    0.8014   -9.3670   24.4730 H   0  0  0  0  0  0  0  0  0  0  0  0
    0.8744  -11.1428   24.0809 H   0  0  0  0  0  0  0  0  0  0  0  0
    2.3601  -10.7589   21.7307 H   0  0  0  0  0  0  0  0  0  0  0  0
    3.1714   -9.1229   20.1098 H   0  0  0  0  0  0  0  0  0  0  0  0
    4.0692   -8.4278   21.0759 H   0  0  0  0  0  0  0  0  0  0  0  0
    2.7468   -6.0710   19.4579 H   0  0  0  0  0  0  0  0  0  0  0  0
    7.6283   -4.1161   16.1517 H   0  0  0  0  0  0  0  0  0  0  0  0
   10.2746   -5.0541   17.5347 H   0  0  0  0  0  0  0  0  0  0  0  0
   12.3538   -3.8642   17.7830 H   0  0  0  0  0  0  0  0  0  0  0  0
   12.3104   -1.4834   16.9902 H   0  0  0  0  0  0  0  0  0  0  0  0
   10.4291   -0.5571   16.4434 H   0  0  0  0  0  0  0  0  0  0  0  0
    1.0001  -12.8161   21.6544 H   0  0  0  0  0  0  0  0  0  0  0  0
   -2.4609  -15.7745   24.9120 H   0  0  0  0  0  0  0  0  0  0  0  0
   -5.0070  -16.3367   24.3217 H   0  0  0  0  0  0  0  0  0  0  0  0
   -4.1430  -11.6142   23.8762 H   0  0  0  0  0  0  0  0  0  0  0  0
   -3.9176  -12.7385   25.2871 H   0  0  0  0  0  0  0  0  0  0  0  0
   -5.4489  -12.6802   24.3924 H   0  0  0  0  0  0  0  0  0  0  0  0
  1  2  1  0
  2  3  1  0
  3  4  1  0
  4  5  1  0
  5  6  2  0
  5  7  1  0
  7  8  2  0
  8  9  1  0
  9 10  1  0
 10 11  2  0
 11 12  1  0
 12 13  2  0
 13 14  1  0
 14 15  2  0
  2 16  1  0
 16 17  1  0
 17 18  2  0
 17 19  1  0
 19 20  2  0
 20 21  1  0
 21 22  2  0
 22 23  1  0
 23 24  1  0
 15  7  1  0
 23 19  1  0
 14  9  1  0
  1 25  1  0
  1 26  1  0
  1 27  1  0
  2 28  1  0
  3 29  1  0
  3 30  1  0
  4 31  1  0
  8 32  1  0
 10 33  1  0
 11 34  1  0
 12 35  1  0
 13 36  1  0
 16 37  1  0
 20 38  1  0
 21 39  1  0
 24 40  1  0
 24 41  1  0
 24 42  1  0
M  END
>  <Energy>  (713) 
2659.2820402224247

>  <compound_id>  (713) 
55966

>  <target_id>  (713) 
1

>  <reference_id>  (713) 
96

>  <inspiration_ids>  (713) 
[96, 103]

>  <energy_score>  (713) 
2620.6630963246816

>  <distance_score>  (713) 
9.887154838575503

>  <path>  (713) 
/opt/xchem-fragalysis-2/maxwin/BulkDock/SCRATCH/511022/C55966-P96/C55966-P96.minimised.mol

>  <scratch_subdir>  (713) 
/opt/xchem-fragalysis-2/maxwin/BulkDock/SCRATCH/511022/C55966-P96

>  <fragmenstein_runtime>  (713) 
19.9424090385437

>  <fragmenstein_outcome>  (713) 
too moved

>  <fragmenstein_mode>  (713) 
expansion

>  <fragmenstein_error>  (713) 


$$$$
C55966-P103
     RDKit          3D

 42 44  0  0  0  0  0  0  0  0999 V2000
   -2.1494  -13.8248   11.7430 C   0  0  0  0  0  0  0  0  0  0  0  0
   -1.0536  -14.1843   12.7502 C   0  0  0  0  0  0  0  0  0  0  0  0
    0.2439  -14.6279   12.0037 C   0  0  0  0  0  0  0  0  0  0  0  0
    1.3843  -13.6707   11.9954 N   0  0  0  0  0  0  0  0  0  0  0  0
    2.7852  -13.8752   11.7351 C   0  0  0  0  0  0  0  0  0  0  0  0
    3.3784  -14.8526   11.3819 O   0  0  0  0  0  0  0  0  0  0  0  0
    3.6335  -12.6454   11.9497 C   0  0  0  0  0  0  0  0  0  0  0  0
    5.0177  -12.6240   11.7915 C   0  0  0  0  0  0  0  0  0  0  0  0
    5.4338  -11.3441   12.0112 N   0  0  0  0  0  0  0  0  0  0  0  0
    6.7121  -10.7982   11.8869 C   0  0  0  0  0  0  0  0  0  0  0  0
    6.8766   -9.4917   12.1271 C   0  0  0  0  0  0  0  0  0  0  0  0
    5.7361   -8.7441   12.5973 C   0  0  0  0  0  0  0  0  0  0  0  0
    4.4929   -9.2480   12.6444 C   0  0  0  0  0  0  0  0  0  0  0  0
    4.2939  -10.6191   12.3430 C   0  0  0  0  0  0  0  0  0  0  0  0
    3.2059  -11.3744   12.3286 N   0  0  0  0  0  0  0  0  0  0  0  0
   -1.6040  -15.1068   13.7784 N   0  0  0  0  0  0  0  0  0  0  0  0
   -2.2947  -16.3684   13.6476 C   0  0  0  0  0  0  0  0  0  0  0  0
   -2.5299  -17.0306   12.6799 O   0  0  0  0  0  0  0  0  0  0  0  0
   -2.8854  -16.8529   14.9354 C   0  0  0  0  0  0  0  0  0  0  0  0
   -3.4052  -16.1785   16.0373 C   0  0  0  0  0  0  0  0  0  0  0  0
   -3.9238  -17.1570   16.9165 C   0  0  0  0  0  0  0  0  0  0  0  0
   -3.7725  -18.3847   16.4331 N   0  0  0  0  0  0  0  0  0  0  0  0
   -3.1577  -18.1838   15.2395 N   0  0  0  0  0  0  0  0  0  0  0  0
   -2.8318  -19.3334   14.4244 C   0  0  0  0  0  0  0  0  0  0  0  0
   -3.0401  -13.4462   12.2565 H   0  0  0  0  0  0  0  0  0  0  0  0
   -1.8032  -13.0488   11.0520 H   0  0  0  0  0  0  0  0  0  0  0  0
   -2.4519  -14.6960   11.1525 H   0  0  0  0  0  0  0  0  0  0  0  0
   -0.8267  -13.2610   13.2844 H   0  0  0  0  0  0  0  0  0  0  0  0
    0.0275  -14.8135   10.9447 H   0  0  0  0  0  0  0  0  0  0  0  0
    0.6166  -15.5810   12.3907 H   0  0  0  0  0  0  0  0  0  0  0  0
    1.2256  -12.6867   12.1984 H   0  0  0  0  0  0  0  0  0  0  0  0
    5.7010  -13.4102   11.5020 H   0  0  0  0  0  0  0  0  0  0  0  0
    7.5034  -11.4479   11.5354 H   0  0  0  0  0  0  0  0  0  0  0  0
    7.8061   -8.9783   11.9380 H   0  0  0  0  0  0  0  0  0  0  0  0
    5.9097   -7.7550   12.9604 H   0  0  0  0  0  0  0  0  0  0  0  0
    3.6512   -8.6568   12.9831 H   0  0  0  0  0  0  0  0  0  0  0  0
   -1.5161  -14.8774   14.7642 H   0  0  0  0  0  0  0  0  0  0  0  0
   -3.4251  -15.1069   16.1677 H   0  0  0  0  0  0  0  0  0  0  0  0
   -4.4071  -17.0278   17.8751 H   0  0  0  0  0  0  0  0  0  0  0  0
   -1.8091  -19.2276   14.0548 H   0  0  0  0  0  0  0  0  0  0  0  0
   -3.5471  -19.3823   13.6002 H   0  0  0  0  0  0  0  0  0  0  0  0
   -2.9025  -20.2388   15.0334 H   0  0  0  0  0  0  0  0  0  0  0  0
  1  2  1  0
  2  3  1  0
  3  4  1  0
  4  5  1  0
  5  6  2  0
  5  7  1  0
  7  8  2  0
  8  9  1  0
  9 10  1  0
 10 11  2  0
 11 12  1  0
 12 13  2  0
 13 14  1  0
 14 15  2  0
  2 16  1  0
 16 17  1  0
 17 18  2  0
 17 19  1  0
 19 20  2  0
 20 21  1  0
 21 22  2  0
 22 23  1  0
 23 24  1  0
 15  7  1  0
 23 19  1  0
 14  9  1  0
  1 25  1  0
  1 26  1  0
  1 27  1  0
  2 28  1  0
  3 29  1  0
  3 30  1  0
  4 31  1  0
  8 32  1  0
 10 33  1  0
 11 34  1  0
 12 35  1  0
 13 36  1  0
 16 37  1  0
 20 38  1  0
 21 39  1  0
 24 40  1  0
 24 41  1  0
 24 42  1  0
M  END
>  <Energy>  (714) 
29.107436560613003

>  <compound_id>  (714) 
55966

>  <target_id>  (714) 
1

>  <reference_id>  (714) 
103

>  <inspiration_ids>  (714) 
[96, 103]

>  <energy_score>  (714) 
-9.51150733710108

>  <distance_score>  (714) 
15.685191182026498

>  <path>  (714) 
/opt/xchem-fragalysis-2/maxwin/BulkDock/SCRATCH/511022/C55966-P103/C55966-P103.minimised.mol

>  <scratch_subdir>  (714) 
/opt/xchem-fragalysis-2/maxwin/BulkDock/SCRATCH/511022/C55966-P103

>  <fragmenstein_runtime>  (714) 
33.48966932296753

>  <fragmenstein_outcome>  (714) 
too moved

>  <fragmenstein_mode>  (714) 
expansion

>  <fragmenstein_error>  (714) 


$$$$
C55970-P96
     RDKit          3D

 35 37  0  0  0  0  0  0  0  0999 V2000
    0.0401   -7.6207   25.8442 O   0  0  0  0  0  0  0  0  0  0  0  0
    0.8664   -8.4859   25.9895 C   0  0  0  0  0  0  0  0  0  0  0  0
    0.3494   -9.9478   25.1768 C   0  0  0  0  0  0  0  0  0  0  0  0
    0.1334  -11.7881   25.0209 C   0  0  0  0  0  0  0  0  0  0  0  0
   -1.6271  -12.7442   25.6143 N   0  0  0  0  0  0  0  0  0  0  0  0
   -2.1670  -13.6004   26.4649 C   0  0  0  0  0  0  0  0  0  0  0  0
   -2.5887  -14.7876   25.7652 C   0  0  0  0  0  0  0  0  0  0  0  0
   -1.8309  -16.3601   25.6983 Cl  0  0  0  0  0  0  0  0  0  0  0  0
   -2.9422  -13.9746   24.1755 C   0  0  0  0  0  0  0  0  0  0  0  0
   -2.5565  -12.6985   24.3712 N   0  0  0  0  0  0  0  0  0  0  0  0
    2.1746   -8.4417   26.6034 N   0  0  0  0  0  0  0  0  0  0  0  0
    2.9577   -7.3027   27.1556 C   0  0  0  0  0  0  0  0  0  0  0  0
    4.0284   -6.7044   26.1240 C   0  0  0  0  0  0  0  0  0  0  0  0
    4.3507   -5.3715   25.8584 C   0  0  0  0  0  0  0  0  0  0  0  0
    5.3302   -5.3551   24.8771 N   0  0  0  0  0  0  0  0  0  0  0  0
    5.9596   -4.2822   24.2310 C   0  0  0  0  0  0  0  0  0  0  0  0
    6.8777   -4.5219   23.2751 C   0  0  0  0  0  0  0  0  0  0  0  0
    7.1989   -5.9009   22.9450 C   0  0  0  0  0  0  0  0  0  0  0  0
    6.5946   -6.9295   23.5765 C   0  0  0  0  0  0  0  0  0  0  0  0
    5.6062   -6.6841   24.5870 C   0  0  0  0  0  0  0  0  0  0  0  0
    4.8477   -7.4984   25.3142 N   0  0  0  0  0  0  0  0  0  0  0  0
   -0.4677   -9.4644   24.7620 H   0  0  0  0  0  0  0  0  0  0  0  0
    0.6508   -9.9003   24.1586 H   0  0  0  0  0  0  0  0  0  0  0  0
    0.8516  -12.5485   25.4242 H   0  0  0  0  0  0  0  0  0  0  0  0
    0.1785  -11.8365   23.9318 H   0  0  0  0  0  0  0  0  0  0  0  0
   -2.5467  -13.0671   27.3279 H   0  0  0  0  0  0  0  0  0  0  0  0
   -3.3403  -14.3878   23.2787 H   0  0  0  0  0  0  0  0  0  0  0  0
    2.5538   -9.3629   26.6263 H   0  0  0  0  0  0  0  0  0  0  0  0
    2.2573   -6.5065   27.4251 H   0  0  0  0  0  0  0  0  0  0  0  0
    3.4947   -7.6609   28.0382 H   0  0  0  0  0  0  0  0  0  0  0  0
    3.9588   -4.4502   26.2656 H   0  0  0  0  0  0  0  0  0  0  0  0
    5.6707   -3.2844   24.5371 H   0  0  0  0  0  0  0  0  0  0  0  0
    7.3916   -3.7173   22.7599 H   0  0  0  0  0  0  0  0  0  0  0  0
    7.9589   -6.0841   22.1921 H   0  0  0  0  0  0  0  0  0  0  0  0
    6.8414   -7.9600   23.3457 H   0  0  0  0  0  0  0  0  0  0  0  0
  1  2  2  0
  2  3  1  0
  3  4  1  0
  4  5  1  0
  5  6  1  0
  6  7  2  0
  7  8  1  0
  7  9  1  0
  9 10  2  0
  2 11  1  0
 11 12  1  0
 12 13  1  0
 13 14  2  0
 14 15  1  0
 15 16  1  0
 16 17  2  0
 17 18  1  0
 18 19  2  0
 19 20  1  0
 20 21  2  0
 10  5  1  0
 21 13  1  0
 20 15  1  0
  3 22  1  0
  3 23  1  0
  4 24  1  0
  4 25  1  0
  6 26  1  0
  9 27  1  0
 11 28  1  0
 12 29  1  0
 12 30  1  0
 14 31  1  0
 16 32  1  0
 17 33  1  0
 18 34  1  0
 19 35  1  0
M  END
>  <Energy>  (715) 
361.25184640100235

>  <compound_id>  (715) 
55970

>  <target_id>  (715) 
1

>  <reference_id>  (715) 
96

>  <inspiration_ids>  (715) 
[96, 103]

>  <energy_score>  (715) 
342.0604530892822

>  <distance_score>  (715) 
13.783350565294711

>  <path>  (715) 
/opt/xchem-fragalysis-2/maxwin/BulkDock/SCRATCH/511022/C55970-P96/C55970-P96.minimised.mol

>  <scratch_subdir>  (715) 
/opt/xchem-fragalysis-2/maxwin/BulkDock/SCRATCH/511022/C55970-P96

>  <fragmenstein_runtime>  (715) 
13.858632326126099

>  <fragmenstein_outcome>  (715) 
too moved

>  <fragmenstein_mode>  (715) 
expansion

>  <fragmenstein_error>  (715) 


$$$$
C55970-P103
     RDKit          3D

 35 37  0  0  0  0  0  0  0  0999 V2000
   -0.4999   -5.4004   16.9640 O   0  0  0  0  0  0  0  0  0  0  0  0
    0.2217   -6.0702   17.6502 C   0  0  0  0  0  0  0  0  0  0  0  0
   -0.1866   -7.5633   17.8511 C   0  0  0  0  0  0  0  0  0  0  0  0
   -1.6903   -7.7912   17.4876 C   0  0  0  0  0  0  0  0  0  0  0  0
   -2.3236   -9.1046   17.6617 N   0  0  0  0  0  0  0  0  0  0  0  0
   -3.0184   -9.7471   16.6682 C   0  0  0  0  0  0  0  0  0  0  0  0
   -3.3544  -10.9859   17.1446 C   0  0  0  0  0  0  0  0  0  0  0  0
   -4.1364  -12.1527   16.2022 Cl  0  0  0  0  0  0  0  0  0  0  0  0
   -2.9007  -10.9775   18.4823 C   0  0  0  0  0  0  0  0  0  0  0  0
   -2.3862   -9.7827   18.8304 N   0  0  0  0  0  0  0  0  0  0  0  0
    1.4611   -5.7361   18.3258 N   0  0  0  0  0  0  0  0  0  0  0  0
    2.1637   -4.4633   18.4605 C   0  0  0  0  0  0  0  0  0  0  0  0
    3.3816   -4.4318   19.3603 C   0  0  0  0  0  0  0  0  0  0  0  0
    3.7895   -3.4335   20.2400 C   0  0  0  0  0  0  0  0  0  0  0  0
    5.0275   -3.8036   20.7199 N   0  0  0  0  0  0  0  0  0  0  0  0
    5.9192   -3.1260   21.5545 C   0  0  0  0  0  0  0  0  0  0  0  0
    7.1056   -3.6902   21.8485 C   0  0  0  0  0  0  0  0  0  0  0  0
    7.4129   -5.0074   21.3108 C   0  0  0  0  0  0  0  0  0  0  0  0
    6.5387   -5.6606   20.5196 C   0  0  0  0  0  0  0  0  0  0  0  0
    5.3056   -5.0431   20.1613 C   0  0  0  0  0  0  0  0  0  0  0  0
    4.3724   -5.3912   19.2944 N   0  0  0  0  0  0  0  0  0  0  0  0
    0.0205   -7.8900   18.8705 H   0  0  0  0  0  0  0  0  0  0  0  0
    0.4571   -8.1371   17.1790 H   0  0  0  0  0  0  0  0  0  0  0  0
   -1.7940   -7.5592   16.4181 H   0  0  0  0  0  0  0  0  0  0  0  0
   -2.3518   -7.0800   17.9887 H   0  0  0  0  0  0  0  0  0  0  0  0
   -3.1601   -9.2928   15.6981 H   0  0  0  0  0  0  0  0  0  0  0  0
   -2.9602  -11.7328   19.2459 H   0  0  0  0  0  0  0  0  0  0  0  0
    1.8434   -6.5734   18.7488 H   0  0  0  0  0  0  0  0  0  0  0  0
    2.4630   -4.1625   17.4501 H   0  0  0  0  0  0  0  0  0  0  0  0
    1.4249   -3.7306   18.8041 H   0  0  0  0  0  0  0  0  0  0  0  0
    3.3265   -2.5005   20.5265 H   0  0  0  0  0  0  0  0  0  0  0  0
    5.6088   -2.1599   21.9308 H   0  0  0  0  0  0  0  0  0  0  0  0
    7.8272   -3.2086   22.5001 H   0  0  0  0  0  0  0  0  0  0  0  0
    8.3591   -5.4612   21.5942 H   0  0  0  0  0  0  0  0  0  0  0  0
    6.7405   -6.6549   20.1381 H   0  0  0  0  0  0  0  0  0  0  0  0
  1  2  2  0
  2  3  1  0
  3  4  1  0
  4  5  1  0
  5  6  1  0
  6  7  2  0
  7  8  1  0
  7  9  1  0
  9 10  2  0
  2 11  1  0
 11 12  1  0
 12 13  1  0
 13 14  2  0
 14 15  1  0
 15 16  1  0
 16 17  2  0
 17 18  1  0
 18 19  2  0
 19 20  1  0
 20 21  2  0
 10  5  1  0
 21 13  1  0
 20 15  1  0
  3 22  1  0
  3 23  1  0
  4 24  1  0
  4 25  1  0
  6 26  1  0
  9 27  1  0
 11 28  1  0
 12 29  1  0
 12 30  1  0
 14 31  1  0
 16 32  1  0
 17 33  1  0
 18 34  1  0
 19 35  1  0
M  END
>  <Energy>  (716) 
11.679979683703555

>  <compound_id>  (716) 
55970

>  <target_id>  (716) 
1

>  <reference_id>  (716) 
103

>  <inspiration_ids>  (716) 
[96, 103]

>  <energy_score>  (716) 
-7.511413628007915

>  <distance_score>  (716) 
14.515801107282003

>  <path>  (716) 
/opt/xchem-fragalysis-2/maxwin/BulkDock/SCRATCH/511022/C55970-P103/C55970-P103.minimised.mol

>  <scratch_subdir>  (716) 
/opt/xchem-fragalysis-2/maxwin/BulkDock/SCRATCH/511022/C55970-P103

>  <fragmenstein_runtime>  (716) 
22.242851495742798

>  <fragmenstein_outcome>  (716) 
too moved

>  <fragmenstein_mode>  (716) 
expansion

>  <fragmenstein_error>  (716) 


$$$$
C55972-P96
     RDKit          3D

 31 33  0  0  0  0  0  0  0  0999 V2000
    6.0553  -14.2398   21.2430 O   0  0  0  0  0  0  0  0  0  0  0  0
    5.6750  -13.7052   22.2808 C   0  0  0  0  0  0  0  0  0  0  0  0
    4.0479  -13.9953   22.8209 C   0  0  0  0  0  0  0  0  0  0  0  0
    3.1660  -15.5384   23.9455 C   0  0  0  0  0  0  0  0  0  0  0  0
    2.1104  -15.6110   25.3117 N   0  0  0  0  0  0  0  0  0  0  0  0
    0.6370  -16.6860   25.2522 C   0  0  0  0  0  0  0  0  0  0  0  0
   -0.4987  -16.3192   25.9858 C   0  0  0  0  0  0  0  0  0  0  0  0
   -1.2254  -18.3281   26.6009 Cl  0  0  0  0  0  0  0  0  0  0  0  0
    0.6899  -15.2927   26.7560 C   0  0  0  0  0  0  0  0  0  0  0  0
    1.7237  -14.6678   26.1687 N   0  0  0  0  0  0  0  0  0  0  0  0
    6.4911  -12.8877   23.0040 O   0  0  0  0  0  0  0  0  0  0  0  0
    7.0194  -11.4959   22.7316 C   0  0  0  0  0  0  0  0  0  0  0  0
    8.0981  -11.2433   21.7002 C   0  0  0  0  0  0  0  0  0  0  0  0
    9.3973  -11.7464   21.6034 C   0  0  0  0  0  0  0  0  0  0  0  0
   10.1719  -11.0893   20.6617 N   0  0  0  0  0  0  0  0  0  0  0  0
    9.3539  -10.2118   20.1652 C   0  0  0  0  0  0  0  0  0  0  0  0
    9.4910   -9.0009   18.9222 S   0  0  0  0  0  0  0  0  0  0  0  0
    7.8104   -8.5717   19.2240 C   0  0  0  0  0  0  0  0  0  0  0  0
    7.2557   -9.2680   20.2331 C   0  0  0  0  0  0  0  0  0  0  0  0
    8.1136  -10.2238   20.7463 N   0  0  0  0  0  0  0  0  0  0  0  0
    3.8441  -13.0288   23.3393 H   0  0  0  0  0  0  0  0  0  0  0  0
    3.5142  -13.9520   21.8533 H   0  0  0  0  0  0  0  0  0  0  0  0
    2.5654  -16.0750   23.2382 H   0  0  0  0  0  0  0  0  0  0  0  0
    3.6571  -16.4111   24.3569 H   0  0  0  0  0  0  0  0  0  0  0  0
    0.8815  -17.1862   24.2879 H   0  0  0  0  0  0  0  0  0  0  0  0
    0.8874  -15.0335   27.8052 H   0  0  0  0  0  0  0  0  0  0  0  0
    7.4831  -11.2338   23.6924 H   0  0  0  0  0  0  0  0  0  0  0  0
    6.1960  -10.7884   22.6526 H   0  0  0  0  0  0  0  0  0  0  0  0
    9.8279  -12.5387   22.2058 H   0  0  0  0  0  0  0  0  0  0  0  0
    7.2981   -7.8479   18.6097 H   0  0  0  0  0  0  0  0  0  0  0  0
    6.2480   -9.1736   20.5960 H   0  0  0  0  0  0  0  0  0  0  0  0
  1  2  2  0
  2  3  1  0
  3  4  1  0
  4  5  1  0
  5  6  1  0
  6  7  2  0
  7  8  1  0
  7  9  1  0
  9 10  2  0
  2 11  1  0
 11 12  1  0
 12 13  1  0
 13 14  2  0
 14 15  1  0
 15 16  2  0
 16 17  1  0
 17 18  1  0
 18 19  2  0
 19 20  1  0
 10  5  1  0
 20 13  1  0
 20 16  1  0
  3 21  1  0
  3 22  1  0
  4 23  1  0
  4 24  1  0
  6 25  1  0
  9 26  1  0
 12 27  1  0
 12 28  1  0
 14 29  1  0
 18 30  1  0
 19 31  1  0
M  END
>  <Energy>  (717) 
374.25701840925348

>  <compound_id>  (717) 
55972

>  <target_id>  (717) 
1

>  <reference_id>  (717) 
96

>  <inspiration_ids>  (717) 
[96, 103]

>  <energy_score>  (717) 
343.6466336797978

>  <distance_score>  (717) 
13.489716141395872

>  <path>  (717) 
/opt/xchem-fragalysis-2/maxwin/BulkDock/SCRATCH/511022/C55972-P96/C55972-P96.minimised.mol

>  <scratch_subdir>  (717) 
/opt/xchem-fragalysis-2/maxwin/BulkDock/SCRATCH/511022/C55972-P96

>  <fragmenstein_runtime>  (717) 
12.370568037033081

>  <fragmenstein_outcome>  (717) 
too moved

>  <fragmenstein_mode>  (717) 
expansion

>  <fragmenstein_error>  (717) 


$$$$
C55972-P103
     RDKit          3D

 31 33  0  0  0  0  0  0  0  0999 V2000
    3.2067  -13.8445   24.3875 O   0  0  0  0  0  0  0  0  0  0  0  0
    2.2732  -13.2736   23.7953 C   0  0  0  0  0  0  0  0  0  0  0  0
    0.2528  -14.0949   23.6754 C   0  0  0  0  0  0  0  0  0  0  0  0
   -1.6008  -15.0269   24.2312 C   0  0  0  0  0  0  0  0  0  0  0  0
   -3.1703  -16.2398   24.0772 N   0  0  0  0  0  0  0  0  0  0  0  0
   -3.0255  -18.0341   25.0329 C   0  0  0  0  0  0  0  0  0  0  0  0
   -4.3013  -19.3421   24.0546 C   0  0  0  0  0  0  0  0  0  0  0  0
   -4.0952  -21.0992   24.1793 Cl  0  0  0  0  0  0  0  0  0  0  0  0
   -5.0108  -18.4667   22.3122 C   0  0  0  0  0  0  0  0  0  0  0  0
   -4.2230  -16.7266   22.3706 N   0  0  0  0  0  0  0  0  0  0  0  0
    2.8913  -11.8492   22.9874 O   0  0  0  0  0  0  0  0  0  0  0  0
    4.5720  -10.9838   22.5113 C   0  0  0  0  0  0  0  0  0  0  0  0
    5.7412   -9.6106   22.9076 C   0  0  0  0  0  0  0  0  0  0  0  0
    7.1418   -9.8788   22.9502 C   0  0  0  0  0  0  0  0  0  0  0  0
    7.9488   -8.7895   22.7311 N   0  0  0  0  0  0  0  0  0  0  0  0
    7.0937   -7.8335   22.5511 C   0  0  0  0  0  0  0  0  0  0  0  0
    7.2903   -6.1644   22.0908 S   0  0  0  0  0  0  0  0  0  0  0  0
    5.5501   -5.9725   22.2367 C   0  0  0  0  0  0  0  0  0  0  0  0
    4.9158   -7.1092   22.5808 C   0  0  0  0  0  0  0  0  0  0  0  0
    5.7744   -8.1943   22.7286 N   0  0  0  0  0  0  0  0  0  0  0  0
    0.2530  -14.4884   22.6093 H   0  0  0  0  0  0  0  0  0  0  0  0
   -0.2976  -13.3566   23.1151 H   0  0  0  0  0  0  0  0  0  0  0  0
   -2.0073  -14.5859   25.1731 H   0  0  0  0  0  0  0  0  0  0  0  0
   -1.2883  -15.8930   24.5558 H   0  0  0  0  0  0  0  0  0  0  0  0
   -2.2907  -18.0699   25.8405 H   0  0  0  0  0  0  0  0  0  0  0  0
   -5.4368  -18.8815   21.4041 H   0  0  0  0  0  0  0  0  0  0  0  0
    5.3617  -11.2880   23.3121 H   0  0  0  0  0  0  0  0  0  0  0  0
    4.8687  -11.3418   21.5283 H   0  0  0  0  0  0  0  0  0  0  0  0
    7.5904  -10.8636   23.0309 H   0  0  0  0  0  0  0  0  0  0  0  0
    5.0626   -5.0227   22.0584 H   0  0  0  0  0  0  0  0  0  0  0  0
    3.8474   -7.2161   22.7071 H   0  0  0  0  0  0  0  0  0  0  0  0
  1  2  2  0
  2  3  1  0
  3  4  1  0
  4  5  1  0
  5  6  1  0
  6  7  2  0
  7  8  1  0
  7  9  1  0
  9 10  2  0
  2 11  1  0
 11 12  1  0
 12 13  1  0
 13 14  2  0
 14 15  1  0
 15 16  2  0
 16 17  1  0
 17 18  1  0
 18 19  2  0
 19 20  1  0
 10  5  1  0
 20 13  1  0
 20 16  1  0
  3 21  1  0
  3 22  1  0
  4 23  1  0
  4 24  1  0
  6 25  1  0
  9 26  1  0
 12 27  1  0
 12 28  1  0
 14 29  1  0
 18 30  1  0
 19 31  1  0
M  END
>  <Energy>  (718) 
1412.7225737988499

>  <compound_id>  (718) 
55972

>  <target_id>  (718) 
1

>  <reference_id>  (718) 
103

>  <inspiration_ids>  (718) 
[96, 103]

>  <energy_score>  (718) 
1382.1121890694196

>  <distance_score>  (718) 
12.34140253729848

>  <path>  (718) 
/opt/xchem-fragalysis-2/maxwin/BulkDock/SCRATCH/511022/C55972-P103/C55972-P103.minimised.mol

>  <scratch_subdir>  (718) 
/opt/xchem-fragalysis-2/maxwin/BulkDock/SCRATCH/511022/C55972-P103

>  <fragmenstein_runtime>  (718) 
13.839337348937988

>  <fragmenstein_outcome>  (718) 
too moved

>  <fragmenstein_mode>  (718) 
expansion

>  <fragmenstein_error>  (718) 


$$$$
C55973-P96
     RDKit          3D

 34 36  0  0  0  0  0  0  0  0999 V2000
    1.3935  -10.8108   22.4001 O   0  0  0  0  0  0  0  0  0  0  0  0
    0.9954  -11.9162   22.1498 C   0  0  0  0  0  0  0  0  0  0  0  0
   -0.8700  -12.7931   22.5254 C   0  0  0  0  0  0  0  0  0  0  0  0
   -2.3895  -13.8819   23.4256 C   0  0  0  0  0  0  0  0  0  0  0  0
   -2.6438  -15.4578   24.5424 N   0  0  0  0  0  0  0  0  0  0  0  0
   -2.7124  -15.7745   26.0598 C   0  0  0  0  0  0  0  0  0  0  0  0
   -2.6610  -17.4237   26.1966 C   0  0  0  0  0  0  0  0  0  0  0  0
   -3.1168  -18.9097   27.0087 Cl  0  0  0  0  0  0  0  0  0  0  0  0
   -2.3726  -17.6243   24.9956 C   0  0  0  0  0  0  0  0  0  0  0  0
   -1.7204  -16.5175   24.5860 N   0  0  0  0  0  0  0  0  0  0  0  0
    2.1413  -12.7842   21.2451 O   0  0  0  0  0  0  0  0  0  0  0  0
    2.6340  -12.6536   19.4122 C   0  0  0  0  0  0  0  0  0  0  0  0
    3.8517  -11.6725   18.4729 C   0  0  0  0  0  0  0  0  0  0  0  0
    4.2901  -10.3247   18.4799 C   0  0  0  0  0  0  0  0  0  0  0  0
    5.4704  -10.2189   17.7919 N   0  0  0  0  0  0  0  0  0  0  0  0
    6.3516   -9.1363   17.7111 C   0  0  0  0  0  0  0  0  0  0  0  0
    7.5024   -9.2837   17.0373 C   0  0  0  0  0  0  0  0  0  0  0  0
    7.7430  -10.5418   16.3497 C   0  0  0  0  0  0  0  0  0  0  0  0
    6.8790  -11.5771   16.4435 C   0  0  0  0  0  0  0  0  0  0  0  0
    5.6926  -11.4621   17.2363 C   0  0  0  0  0  0  0  0  0  0  0  0
    4.7570  -12.3340   17.6131 N   0  0  0  0  0  0  0  0  0  0  0  0
   -1.0865  -12.9896   21.4732 H   0  0  0  0  0  0  0  0  0  0  0  0
   -0.1660  -13.1115   23.1417 H   0  0  0  0  0  0  0  0  0  0  0  0
   -2.7110  -13.1847   24.2234 H   0  0  0  0  0  0  0  0  0  0  0  0
   -3.2641  -14.1338   22.8190 H   0  0  0  0  0  0  0  0  0  0  0  0
   -3.2067  -15.0388   26.6486 H   0  0  0  0  0  0  0  0  0  0  0  0
   -2.5170  -18.6269   24.5453 H   0  0  0  0  0  0  0  0  0  0  0  0
    1.9716  -13.2713   18.7992 H   0  0  0  0  0  0  0  0  0  0  0  0
    3.4843  -13.3156   19.6030 H   0  0  0  0  0  0  0  0  0  0  0  0
    3.9579   -9.4505   19.0287 H   0  0  0  0  0  0  0  0  0  0  0  0
    6.0790   -8.2330   18.2389 H   0  0  0  0  0  0  0  0  0  0  0  0
    8.2505   -8.5043   16.9981 H   0  0  0  0  0  0  0  0  0  0  0  0
    8.6454  -10.6303   15.7509 H   0  0  0  0  0  0  0  0  0  0  0  0
    7.0666  -12.5175   15.9374 H   0  0  0  0  0  0  0  0  0  0  0  0
  1  2  2  0
  2  3  1  0
  3  4  1  0
  4  5  1  0
  5  6  1  0
  6  7  2  0
  7  8  1  0
  7  9  1  0
  9 10  2  0
  2 11  1  0
 11 12  1  0
 12 13  1  0
 13 14  2  0
 14 15  1  0
 15 16  1  0
 16 17  2  0
 17 18  1  0
 18 19  2  0
 19 20  1  0
 20 21  2  0
 10  5  1  0
 21 13  1  0
 20 15  1  0
  3 22  1  0
  3 23  1  0
  4 24  1  0
  4 25  1  0
  6 26  1  0
  9 27  1  0
 12 28  1  0
 12 29  1  0
 14 30  1  0
 16 31  1  0
 17 32  1  0
 18 33  1  0
 19 34  1  0
M  END
>  <Energy>  (719) 
636.95364725266313

>  <compound_id>  (719) 
55973

>  <target_id>  (719) 
1

>  <reference_id>  (719) 
96

>  <inspiration_ids>  (719) 
[96, 103]

>  <energy_score>  (719) 
596.0996277426941

>  <distance_score>  (719) 
13.132641375569795

>  <path>  (719) 
/opt/xchem-fragalysis-2/maxwin/BulkDock/SCRATCH/511022/C55973-P96/C55973-P96.minimised.mol

>  <scratch_subdir>  (719) 
/opt/xchem-fragalysis-2/maxwin/BulkDock/SCRATCH/511022/C55973-P96

>  <fragmenstein_runtime>  (719) 
11.106473445892334

>  <fragmenstein_outcome>  (719) 
too moved

>  <fragmenstein_mode>  (719) 
expansion

>  <fragmenstein_error>  (719) 


$$$$
C55973-P103
     RDKit          3D

 34 36  0  0  0  0  0  0  0  0999 V2000
    6.9640  -12.3973   26.8768 O   0  0  0  0  0  0  0  0  0  0  0  0
    7.2178  -13.0270   25.8517 C   0  0  0  0  0  0  0  0  0  0  0  0
    6.9119  -14.5554   25.7475 C   0  0  0  0  0  0  0  0  0  0  0  0
    5.5897  -14.9332   26.5070 C   0  0  0  0  0  0  0  0  0  0  0  0
    5.0669  -16.3102   26.6048 N   0  0  0  0  0  0  0  0  0  0  0  0
    5.0982  -17.3167   25.6732 C   0  0  0  0  0  0  0  0  0  0  0  0
    4.2596  -18.3143   26.1265 C   0  0  0  0  0  0  0  0  0  0  0  0
    3.8941  -19.7866   25.3842 Cl  0  0  0  0  0  0  0  0  0  0  0  0
    3.7606  -17.8428   27.3471 C   0  0  0  0  0  0  0  0  0  0  0  0
    4.2501  -16.6336   27.6505 N   0  0  0  0  0  0  0  0  0  0  0  0
    7.8319  -12.4331   24.7487 O   0  0  0  0  0  0  0  0  0  0  0  0
    8.1741  -11.0070   24.9731 C   0  0  0  0  0  0  0  0  0  0  0  0
    8.7160  -10.0917   23.8329 C   0  0  0  0  0  0  0  0  0  0  0  0
   10.0358   -9.7446   23.5541 C   0  0  0  0  0  0  0  0  0  0  0  0
   10.0020   -8.5720   22.8217 N   0  0  0  0  0  0  0  0  0  0  0  0
   11.0426   -7.7106   22.4603 C   0  0  0  0  0  0  0  0  0  0  0  0
   10.7515   -6.5433   21.8597 C   0  0  0  0  0  0  0  0  0  0  0  0
    9.3617   -6.2394   21.5500 C   0  0  0  0  0  0  0  0  0  0  0  0
    8.3661   -7.0915   21.8669 C   0  0  0  0  0  0  0  0  0  0  0  0
    8.6615   -8.2992   22.5743 C   0  0  0  0  0  0  0  0  0  0  0  0
    7.8801   -9.1963   23.1555 N   0  0  0  0  0  0  0  0  0  0  0  0
    7.7575  -15.0916   26.1915 H   0  0  0  0  0  0  0  0  0  0  0  0
    6.8486  -14.8567   24.7001 H   0  0  0  0  0  0  0  0  0  0  0  0
    4.7677  -14.3866   26.0429 H   0  0  0  0  0  0  0  0  0  0  0  0
    5.6731  -14.5811   27.5431 H   0  0  0  0  0  0  0  0  0  0  0  0
    5.6806  -17.2321   24.7684 H   0  0  0  0  0  0  0  0  0  0  0  0
    3.0684  -18.3182   28.0290 H   0  0  0  0  0  0  0  0  0  0  0  0
    8.9304  -10.9937   25.7691 H   0  0  0  0  0  0  0  0  0  0  0  0
    7.2797  -10.5032   25.3555 H   0  0  0  0  0  0  0  0  0  0  0  0
   10.9704  -10.1377   23.9276 H   0  0  0  0  0  0  0  0  0  0  0  0
   12.0499   -8.0065   22.7240 H   0  0  0  0  0  0  0  0  0  0  0  0
   11.5165   -5.8219   21.5859 H   0  0  0  0  0  0  0  0  0  0  0  0
    9.1579   -5.2909   21.0654 H   0  0  0  0  0  0  0  0  0  0  0  0
    7.3277   -6.8641   21.6547 H   0  0  0  0  0  0  0  0  0  0  0  0
  1  2  2  0
  2  3  1  0
  3  4  1  0
  4  5  1  0
  5  6  1  0
  6  7  2  0
  7  8  1  0
  7  9  1  0
  9 10  2  0
  2 11  1  0
 11 12  1  0
 12 13  1  0
 13 14  2  0
 14 15  1  0
 15 16  1  0
 16 17  2  0
 17 18  1  0
 18 19  2  0
 19 20  1  0
 20 21  2  0
 10  5  1  0
 21 13  1  0
 20 15  1  0
  3 22  1  0
  3 23  1  0
  4 24  1  0
  4 25  1  0
  6 26  1  0
  9 27  1  0
 12 28  1  0
 12 29  1  0
 14 30  1  0
 16 31  1  0
 17 32  1  0
 18 33  1  0
 19 34  1  0
M  END
>  <Energy>  (720) 
29.600649664291023

>  <compound_id>  (720) 
55973

>  <target_id>  (720) 
1

>  <reference_id>  (720) 
103

>  <inspiration_ids>  (720) 
[96, 103]

>  <energy_score>  (720) 
-11.253369845679742

>  <distance_score>  (720) 
14.036908040928601

>  <path>  (720) 
/opt/xchem-fragalysis-2/maxwin/BulkDock/SCRATCH/511022/C55973-P103/C55973-P103.minimised.mol

>  <scratch_subdir>  (720) 
/opt/xchem-fragalysis-2/maxwin/BulkDock/SCRATCH/511022/C55973-P103

>  <fragmenstein_runtime>  (720) 
18.21158504486084

>  <fragmenstein_outcome>  (720) 
too moved

>  <fragmenstein_mode>  (720) 
expansion

>  <fragmenstein_error>  (720) 


$$$$
C55974-P96
     RDKit          3D

 34 36  0  0  0  0  0  0  0  0999 V2000
    4.5065  -10.0648   26.3809 O   0  0  0  0  0  0  0  0  0  0  0  0
    4.4879  -10.6100   25.3545 C   0  0  0  0  0  0  0  0  0  0  0  0
    3.6283  -12.1176   25.0203 N   0  0  0  0  0  0  0  0  0  0  0  0
    2.7764  -13.1686   26.0721 C   0  0  0  0  0  0  0  0  0  0  0  0
    1.5829  -14.7083   26.1800 C   0  0  0  0  0  0  0  0  0  0  0  0
    0.3171  -15.7094   26.8540 N   0  0  0  0  0  0  0  0  0  0  0  0
   -1.0254  -16.4023   26.2028 C   0  0  0  0  0  0  0  0  0  0  0  0
   -1.5860  -17.4173   27.0195 C   0  0  0  0  0  0  0  0  0  0  0  0
   -2.9811  -18.3460   26.6901 Cl  0  0  0  0  0  0  0  0  0  0  0  0
   -0.8219  -17.5928   28.2468 C   0  0  0  0  0  0  0  0  0  0  0  0
    0.3173  -16.7716   28.3927 N   0  0  0  0  0  0  0  0  0  0  0  0
    5.2699  -10.2670   24.0852 N   0  0  0  0  0  0  0  0  0  0  0  0
    6.3167   -9.2495   23.8421 C   0  0  0  0  0  0  0  0  0  0  0  0
    6.5582   -8.1310   22.8306 C   0  0  0  0  0  0  0  0  0  0  0  0
    6.3577   -6.7637   23.0919 C   0  0  0  0  0  0  0  0  0  0  0  0
    7.4401   -6.1330   22.5342 N   0  0  0  0  0  0  0  0  0  0  0  0
    8.0696   -4.9177   22.6882 C   0  0  0  0  0  0  0  0  0  0  0  0
    9.2547   -4.8852   22.0504 C   0  0  0  0  0  0  0  0  0  0  0  0
    9.5881   -6.3844   21.1531 S   0  0  0  0  0  0  0  0  0  0  0  0
    8.0978   -7.0505   21.7763 C   0  0  0  0  0  0  0  0  0  0  0  0
    7.5909   -8.2548   21.8737 N   0  0  0  0  0  0  0  0  0  0  0  0
    3.7016  -12.3363   24.0352 H   0  0  0  0  0  0  0  0  0  0  0  0
    3.6057  -13.7280   26.4627 H   0  0  0  0  0  0  0  0  0  0  0  0
    1.9737  -12.5335   26.2940 H   0  0  0  0  0  0  0  0  0  0  0  0
    1.5422  -14.4521   27.2369 H   0  0  0  0  0  0  0  0  0  0  0  0
    2.2059  -15.4698   25.7195 H   0  0  0  0  0  0  0  0  0  0  0  0
   -1.2708  -16.1163   25.2137 H   0  0  0  0  0  0  0  0  0  0  0  0
   -1.0311  -18.2805   29.0562 H   0  0  0  0  0  0  0  0  0  0  0  0
    4.9808  -10.8594   23.3618 H   0  0  0  0  0  0  0  0  0  0  0  0
    6.4221   -8.7651   24.8238 H   0  0  0  0  0  0  0  0  0  0  0  0
    7.2159   -9.8781   23.7640 H   0  0  0  0  0  0  0  0  0  0  0  0
    5.7534   -6.2682   23.8391 H   0  0  0  0  0  0  0  0  0  0  0  0
    7.6411   -4.1399   23.3023 H   0  0  0  0  0  0  0  0  0  0  0  0
    9.9460   -4.0512   22.0475 H   0  0  0  0  0  0  0  0  0  0  0  0
  1  2  2  0
  2  3  1  0
  3  4  1  0
  4  5  1  0
  5  6  1  0
  6  7  1  0
  7  8  2  0
  8  9  1  0
  8 10  1  0
 10 11  2  0
  2 12  1  0
 12 13  1  0
 13 14  1  0
 14 15  2  0
 15 16  1  0
 16 17  1  0
 17 18  2  0
 18 19  1  0
 19 20  1  0
 20 21  2  0
 11  6  1  0
 21 14  1  0
 20 16  1  0
  3 22  1  0
  4 23  1  0
  4 24  1  0
  5 25  1  0
  5 26  1  0
  7 27  1  0
 10 28  1  0
 12 29  1  0
 13 30  1  0
 13 31  1  0
 15 32  1  0
 17 33  1  0
 18 34  1  0
M  END
>  <Energy>  (721) 
333.19586772436389

>  <compound_id>  (721) 
55974

>  <target_id>  (721) 
1

>  <reference_id>  (721) 
96

>  <inspiration_ids>  (721) 
[96, 103]

>  <energy_score>  (721) 
325.6916009329666

>  <distance_score>  (721) 
12.24194104151072

>  <path>  (721) 
/opt/xchem-fragalysis-2/maxwin/BulkDock/SCRATCH/511022/C55974-P96/C55974-P96.minimised.mol

>  <scratch_subdir>  (721) 
/opt/xchem-fragalysis-2/maxwin/BulkDock/SCRATCH/511022/C55974-P96

>  <fragmenstein_runtime>  (721) 
18.21658992767334

>  <fragmenstein_outcome>  (721) 
too moved

>  <fragmenstein_mode>  (721) 
expansion

>  <fragmenstein_error>  (721) 


$$$$
C55974-P103
     RDKit          3D

 34 36  0  0  0  0  0  0  0  0999 V2000
    6.4067  -11.6706   24.2970 O   0  0  0  0  0  0  0  0  0  0  0  0
    6.4253  -12.3168   25.2761 C   0  0  0  0  0  0  0  0  0  0  0  0
    5.3180  -13.4617   25.7641 N   0  0  0  0  0  0  0  0  0  0  0  0
    3.7120  -13.9712   25.0224 C   0  0  0  0  0  0  0  0  0  0  0  0
    1.8965  -13.2133   24.4994 C   0  0  0  0  0  0  0  0  0  0  0  0
    0.1618  -14.1657   24.5425 N   0  0  0  0  0  0  0  0  0  0  0  0
   -1.3819  -13.6564   25.2988 C   0  0  0  0  0  0  0  0  0  0  0  0
   -2.2147  -14.6558   25.7863 C   0  0  0  0  0  0  0  0  0  0  0  0
   -2.1789  -15.3806   27.7667 Cl  0  0  0  0  0  0  0  0  0  0  0  0
   -2.1101  -15.2948   24.5884 C   0  0  0  0  0  0  0  0  0  0  0  0
   -1.1056  -14.7144   23.7158 N   0  0  0  0  0  0  0  0  0  0  0  0
    7.4099  -12.3823   26.3346 N   0  0  0  0  0  0  0  0  0  0  0  0
    8.7306  -11.7384   26.4652 C   0  0  0  0  0  0  0  0  0  0  0  0
    9.0929  -10.5461   25.5473 C   0  0  0  0  0  0  0  0  0  0  0  0
    8.5013   -9.2857   25.4037 C   0  0  0  0  0  0  0  0  0  0  0  0
    9.4064   -8.5278   24.7052 N   0  0  0  0  0  0  0  0  0  0  0  0
    9.5859   -7.1978   24.3976 C   0  0  0  0  0  0  0  0  0  0  0  0
   10.7823   -6.9818   23.8173 C   0  0  0  0  0  0  0  0  0  0  0  0
   11.6981   -8.4664   23.5408 S   0  0  0  0  0  0  0  0  0  0  0  0
   10.4381   -9.3450   24.3625 C   0  0  0  0  0  0  0  0  0  0  0  0
   10.3194  -10.5533   24.8475 N   0  0  0  0  0  0  0  0  0  0  0  0
    5.5564  -13.7896   26.6877 H   0  0  0  0  0  0  0  0  0  0  0  0
    3.5344  -14.4036   26.0026 H   0  0  0  0  0  0  0  0  0  0  0  0
    3.9973  -14.7560   24.3109 H   0  0  0  0  0  0  0  0  0  0  0  0
    2.1997  -13.7541   23.5949 H   0  0  0  0  0  0  0  0  0  0  0  0
    1.8299  -12.2147   24.0685 H   0  0  0  0  0  0  0  0  0  0  0  0
   -1.6223  -12.6415   25.5037 H   0  0  0  0  0  0  0  0  0  0  0  0
   -2.9939  -15.7929   24.2249 H   0  0  0  0  0  0  0  0  0  0  0  0
    7.1493  -13.1033   26.9814 H   0  0  0  0  0  0  0  0  0  0  0  0
    8.8157  -11.4104   27.5068 H   0  0  0  0  0  0  0  0  0  0  0  0
    9.4690  -12.5323   26.3068 H   0  0  0  0  0  0  0  0  0  0  0  0
    7.5874   -8.8679   25.7982 H   0  0  0  0  0  0  0  0  0  0  0  0
    8.8459   -6.4659   24.6793 H   0  0  0  0  0  0  0  0  0  0  0  0
   11.2145   -6.0281   23.5619 H   0  0  0  0  0  0  0  0  0  0  0  0
  1  2  2  0
  2  3  1  0
  3  4  1  0
  4  5  1  0
  5  6  1  0
  6  7  1  0
  7  8  2  0
  8  9  1  0
  8 10  1  0
 10 11  2  0
  2 12  1  0
 12 13  1  0
 13 14  1  0
 14 15  2  0
 15 16  1  0
 16 17  1  0
 17 18  2  0
 18 19  1  0
 19 20  1  0
 20 21  2  0
 11  6  1  0
 21 14  1  0
 20 16  1  0
  3 22  1  0
  4 23  1  0
  4 24  1  0
  5 25  1  0
  5 26  1  0
  7 27  1  0
 10 28  1  0
 12 29  1  0
 13 30  1  0
 13 31  1  0
 15 32  1  0
 17 33  1  0
 18 34  1  0
M  END
>  <Energy>  (722) 
461.02924133869794

>  <compound_id>  (722) 
55974

>  <target_id>  (722) 
1

>  <reference_id>  (722) 
103

>  <inspiration_ids>  (722) 
[96, 103]

>  <energy_score>  (722) 
453.52497454729473

>  <distance_score>  (722) 
13.846746239690297

>  <path>  (722) 
/opt/xchem-fragalysis-2/maxwin/BulkDock/SCRATCH/511022/C55974-P103/C55974-P103.minimised.mol

>  <scratch_subdir>  (722) 
/opt/xchem-fragalysis-2/maxwin/BulkDock/SCRATCH/511022/C55974-P103

>  <fragmenstein_runtime>  (722) 
24.318097352981567

>  <fragmenstein_outcome>  (722) 
too moved

>  <fragmenstein_mode>  (722) 
expansion

>  <fragmenstein_error>  (722) 


$$$$
C55975-P96
     RDKit          3D

 36 38  0  0  0  0  0  0  0  0999 V2000
    6.7335   -4.0474   24.9303 C   0  0  0  0  0  0  0  0  0  0  0  0
    6.6296   -5.4247   24.2302 C   0  0  0  0  0  0  0  0  0  0  0  0
    6.1612   -6.4541   25.2983 N   0  0  0  0  0  0  0  0  0  0  0  0
    4.7279   -7.0122   25.1092 C   0  0  0  0  0  0  0  0  0  0  0  0
    3.7476   -7.8221   26.2580 C   0  0  0  0  0  0  0  0  0  0  0  0
    2.0957   -7.9978   26.4301 N   0  0  0  0  0  0  0  0  0  0  0  0
    1.0459   -8.3958   25.5560 C   0  0  0  0  0  0  0  0  0  0  0  0
   -0.0816   -7.7468   25.9607 C   0  0  0  0  0  0  0  0  0  0  0  0
   -1.0675   -6.5765   25.2578 Cl  0  0  0  0  0  0  0  0  0  0  0  0
    0.0929   -7.9906   27.2678 C   0  0  0  0  0  0  0  0  0  0  0  0
    1.3880   -8.2496   27.5764 N   0  0  0  0  0  0  0  0  0  0  0  0
    7.9253   -5.6280   23.4002 C   0  0  0  0  0  0  0  0  0  0  0  0
    8.3677   -6.6807   22.6160 C   0  0  0  0  0  0  0  0  0  0  0  0
    9.4155   -6.2007   21.8454 N   0  0  0  0  0  0  0  0  0  0  0  0
   10.1501   -6.8260   20.8341 C   0  0  0  0  0  0  0  0  0  0  0  0
   11.0936   -6.1312   20.1719 C   0  0  0  0  0  0  0  0  0  0  0  0
   11.3332   -4.7436   20.5377 C   0  0  0  0  0  0  0  0  0  0  0  0
   10.6288   -4.1472   21.5208 C   0  0  0  0  0  0  0  0  0  0  0  0
    9.6095   -4.8753   22.2079 C   0  0  0  0  0  0  0  0  0  0  0  0
    8.7273   -4.5112   23.1132 N   0  0  0  0  0  0  0  0  0  0  0  0
    7.6224   -3.9964   25.5704 H   0  0  0  0  0  0  0  0  0  0  0  0
    6.7874   -3.2311   24.2013 H   0  0  0  0  0  0  0  0  0  0  0  0
    5.8660   -3.8561   25.5718 H   0  0  0  0  0  0  0  0  0  0  0  0
    5.8659   -5.4193   23.4500 H   0  0  0  0  0  0  0  0  0  0  0  0
    6.8257   -7.2299   25.2856 H   0  0  0  0  0  0  0  0  0  0  0  0
    4.9597   -7.7989   24.4064 H   0  0  0  0  0  0  0  0  0  0  0  0
    4.1608   -6.2371   24.6252 H   0  0  0  0  0  0  0  0  0  0  0  0
    4.1439   -8.8457   26.2127 H   0  0  0  0  0  0  0  0  0  0  0  0
    4.1021   -7.4755   27.2068 H   0  0  0  0  0  0  0  0  0  0  0  0
    0.9450   -9.4670   25.4672 H   0  0  0  0  0  0  0  0  0  0  0  0
   -0.6898   -7.7586   27.9467 H   0  0  0  0  0  0  0  0  0  0  0  0
    7.9903   -7.6838   22.4812 H   0  0  0  0  0  0  0  0  0  0  0  0
    9.9262   -7.8649   20.6269 H   0  0  0  0  0  0  0  0  0  0  0  0
   11.6969   -6.5790   19.3885 H   0  0  0  0  0  0  0  0  0  0  0  0
   12.1058   -4.1983   20.0022 H   0  0  0  0  0  0  0  0  0  0  0  0
   10.8031   -3.1132   21.7978 H   0  0  0  0  0  0  0  0  0  0  0  0
  1  2  1  0
  2  3  1  0
  3  4  1  0
  4  5  1  0
  5  6  1  0
  6  7  1  0
  7  8  2  0
  8  9  1  0
  8 10  1  0
 10 11  2  0
  2 12  1  0
 12 13  2  0
 13 14  1  0
 14 15  1  0
 15 16  2  0
 16 17  1  0
 17 18  2  0
 18 19  1  0
 19 20  2  0
 11  6  1  0
 20 12  1  0
 19 14  1  0
  1 21  1  0
  1 22  1  0
  1 23  1  0
  2 24  1  0
  3 25  1  0
  4 26  1  0
  4 27  1  0
  5 28  1  0
  5 29  1  0
  7 30  1  0
 10 31  1  0
 13 32  1  0
 15 33  1  0
 16 34  1  0
 17 35  1  0
 18 36  1  0
M  END
>  <Energy>  (723) 
200.08458273900803

>  <compound_id>  (723) 
55975

>  <target_id>  (723) 
1

>  <reference_id>  (723) 
96

>  <inspiration_ids>  (723) 
[96, 103]

>  <energy_score>  (723) 
114.18012670731332

>  <distance_score>  (723) 
14.027119562709414

>  <path>  (723) 
/opt/xchem-fragalysis-2/maxwin/BulkDock/SCRATCH/511022/C55975-P96/C55975-P96.minimised.mol

>  <scratch_subdir>  (723) 
/opt/xchem-fragalysis-2/maxwin/BulkDock/SCRATCH/511022/C55975-P96

>  <fragmenstein_runtime>  (723) 
13.05784559249878

>  <fragmenstein_outcome>  (723) 
too moved

>  <fragmenstein_mode>  (723) 
expansion

>  <fragmenstein_error>  (723) 


$$$$
C55975-P103
     RDKit          3D

 36 38  0  0  0  0  0  0  0  0999 V2000
    0.4592   -7.4986   22.5747 C   0  0  0  0  0  0  0  0  0  0  0  0
    0.5621   -6.2631   23.4836 C   0  0  0  0  0  0  0  0  0  0  0  0
   -0.6009   -6.6402   24.8039 N   0  0  0  0  0  0  0  0  0  0  0  0
   -0.5290   -7.6804   26.2800 C   0  0  0  0  0  0  0  0  0  0  0  0
   -0.5926   -9.3395   27.3380 C   0  0  0  0  0  0  0  0  0  0  0  0
   -1.8919  -10.6148   27.3373 N   0  0  0  0  0  0  0  0  0  0  0  0
   -2.9316  -11.7308   26.2540 C   0  0  0  0  0  0  0  0  0  0  0  0
   -3.8336  -12.5740   27.1293 C   0  0  0  0  0  0  0  0  0  0  0  0
   -4.8183  -13.8634   26.6073 Cl  0  0  0  0  0  0  0  0  0  0  0  0
   -3.5582  -12.2367   28.5900 C   0  0  0  0  0  0  0  0  0  0  0  0
   -2.5207  -11.2495   28.8810 N   0  0  0  0  0  0  0  0  0  0  0  0
    1.0367   -4.7539   22.4543 C   0  0  0  0  0  0  0  0  0  0  0  0
    1.9155   -3.6665   22.6931 C   0  0  0  0  0  0  0  0  0  0  0  0
    2.3931   -3.0358   21.5723 N   0  0  0  0  0  0  0  0  0  0  0  0
    3.4190   -2.0866   21.4295 C   0  0  0  0  0  0  0  0  0  0  0  0
    3.7763   -1.6797   20.2003 C   0  0  0  0  0  0  0  0  0  0  0  0
    2.9566   -2.1222   19.0896 C   0  0  0  0  0  0  0  0  0  0  0  0
    1.9474   -2.9999   19.2782 C   0  0  0  0  0  0  0  0  0  0  0  0
    1.7280   -3.6265   20.5488 C   0  0  0  0  0  0  0  0  0  0  0  0
    1.0677   -4.6967   21.0130 N   0  0  0  0  0  0  0  0  0  0  0  0
   -0.4914   -8.0411   22.5966 H   0  0  0  0  0  0  0  0  0  0  0  0
    1.1602   -8.1627   22.9878 H   0  0  0  0  0  0  0  0  0  0  0  0
    0.7246   -7.3508   21.5365 H   0  0  0  0  0  0  0  0  0  0  0  0
    1.4776   -6.2099   24.0043 H   0  0  0  0  0  0  0  0  0  0  0  0
   -1.4110   -7.0410   24.3065 H   0  0  0  0  0  0  0  0  0  0  0  0
    0.1522   -7.0923   26.9033 H   0  0  0  0  0  0  0  0  0  0  0  0
   -1.4889   -7.2602   26.6080 H   0  0  0  0  0  0  0  0  0  0  0  0
    0.2664   -9.9641   27.5953 H   0  0  0  0  0  0  0  0  0  0  0  0
   -0.7643   -8.9553   28.3652 H   0  0  0  0  0  0  0  0  0  0  0  0
   -2.5930  -11.8683   25.2839 H   0  0  0  0  0  0  0  0  0  0  0  0
   -4.0218  -12.7123   29.4443 H   0  0  0  0  0  0  0  0  0  0  0  0
    2.4720   -3.3624   23.5585 H   0  0  0  0  0  0  0  0  0  0  0  0
    3.9054   -1.7539   22.3361 H   0  0  0  0  0  0  0  0  0  0  0  0
    4.5724   -0.9670   20.0287 H   0  0  0  0  0  0  0  0  0  0  0  0
    3.0940   -1.6350   18.1287 H   0  0  0  0  0  0  0  0  0  0  0  0
    1.2339   -3.1551   18.4883 H   0  0  0  0  0  0  0  0  0  0  0  0
  1  2  1  0
  2  3  1  0
  3  4  1  0
  4  5  1  0
  5  6  1  0
  6  7  1  0
  7  8  2  0
  8  9  1  0
  8 10  1  0
 10 11  2  0
  2 12  1  0
 12 13  2  0
 13 14  1  0
 14 15  1  0
 15 16  2  0
 16 17  1  0
 17 18  2  0
 18 19  1  0
 19 20  2  0
 11  6  1  0
 20 12  1  0
 19 14  1  0
  1 21  1  0
  1 22  1  0
  1 23  1  0
  2 24  1  0
  3 25  1  0
  4 26  1  0
  4 27  1  0
  5 28  1  0
  5 29  1  0
  7 30  1  0
 10 31  1  0
 13 32  1  0
 15 33  1  0
 16 34  1  0
 17 35  1  0
 18 36  1  0
M  END
>  <Energy>  (724) 
501.52940084406686

>  <compound_id>  (724) 
55975

>  <target_id>  (724) 
1

>  <reference_id>  (724) 
103

>  <inspiration_ids>  (724) 
[96, 103]

>  <energy_score>  (724) 
415.62494481237104

>  <distance_score>  (724) 
13.701385092685689

>  <path>  (724) 
/opt/xchem-fragalysis-2/maxwin/BulkDock/SCRATCH/511022/C55975-P103/C55975-P103.minimised.mol

>  <scratch_subdir>  (724) 
/opt/xchem-fragalysis-2/maxwin/BulkDock/SCRATCH/511022/C55975-P103

>  <fragmenstein_runtime>  (724) 
15.02337646484375

>  <fragmenstein_outcome>  (724) 
too moved

>  <fragmenstein_mode>  (724) 
expansion

>  <fragmenstein_error>  (724) 


$$$$
C55977-P96
     RDKit          3D

 41 44  0  0  0  0  0  0  0  0999 V2000
   -0.1270  -19.2820   20.3262 O   0  0  0  0  0  0  0  0  0  0  0  0
   -0.8571  -18.5075   19.7700 C   0  0  0  0  0  0  0  0  0  0  0  0
   -0.6081  -17.6035   18.5944 N   0  0  0  0  0  0  0  0  0  0  0  0
    0.5884  -17.3353   17.8608 C   0  0  0  0  0  0  0  0  0  0  0  0
    1.8258  -17.9776   17.9132 C   0  0  0  0  0  0  0  0  0  0  0  0
    2.8200  -17.3304   17.1902 N   0  0  0  0  0  0  0  0  0  0  0  0
    2.2338  -16.2914   16.6368 C   0  0  0  0  0  0  0  0  0  0  0  0
    2.7781  -15.2216   15.8587 C   0  0  0  0  0  0  0  0  0  0  0  0
    1.9507  -14.3220   15.2987 C   0  0  0  0  0  0  0  0  0  0  0  0
    0.5140  -14.4401   15.4527 C   0  0  0  0  0  0  0  0  0  0  0  0
    0.0020  -15.3860   16.2665 C   0  0  0  0  0  0  0  0  0  0  0  0
    0.8481  -16.2933   16.9125 N   0  0  0  0  0  0  0  0  0  0  0  0
   -2.3150  -18.5132   20.2889 C   0  0  0  0  0  0  0  0  0  0  0  0
   -3.4143  -18.0551   19.5725 C   0  0  0  0  0  0  0  0  0  0  0  0
   -4.5406  -18.2875   20.3054 N   0  0  0  0  0  0  0  0  0  0  0  0
   -4.3137  -18.8500   21.4853 N   0  0  0  0  0  0  0  0  0  0  0  0
   -2.9810  -19.0554   21.5250 C   0  0  0  0  0  0  0  0  0  0  0  0
   -2.4952  -19.7649   22.8129 C   0  0  0  0  0  0  0  0  0  0  0  0
   -2.8037  -18.9357   24.1006 C   0  0  0  0  0  0  0  0  0  0  0  0
   -4.0346  -19.4412   24.8695 C   0  0  0  0  0  0  0  0  0  0  0  0
   -3.8994  -20.9099   25.2805 C   0  0  0  0  0  0  0  0  0  0  0  0
   -3.0867  -21.7091   24.3589 N   0  0  0  0  0  0  0  0  0  0  0  0
   -3.1330  -21.1861   22.9787 C   0  0  0  0  0  0  0  0  0  0  0  0
   -1.4208  -17.0249   18.4421 H   0  0  0  0  0  0  0  0  0  0  0  0
    2.0644  -18.8565   18.5007 H   0  0  0  0  0  0  0  0  0  0  0  0
    3.8542  -15.1549   15.7514 H   0  0  0  0  0  0  0  0  0  0  0  0
    2.3257  -13.4988   14.7049 H   0  0  0  0  0  0  0  0  0  0  0  0
   -0.1326  -13.7599   14.9104 H   0  0  0  0  0  0  0  0  0  0  0  0
   -1.0593  -15.4976   16.4395 H   0  0  0  0  0  0  0  0  0  0  0  0
   -3.5050  -17.6181   18.5894 H   0  0  0  0  0  0  0  0  0  0  0  0
   -5.5020  -18.0844   20.0518 H   0  0  0  0  0  0  0  0  0  0  0  0
   -1.4053  -19.8677   22.7349 H   0  0  0  0  0  0  0  0  0  0  0  0
   -2.9216  -17.8715   23.8638 H   0  0  0  0  0  0  0  0  0  0  0  0
   -1.9355  -19.0066   24.7697 H   0  0  0  0  0  0  0  0  0  0  0  0
   -4.1956  -18.8241   25.7609 H   0  0  0  0  0  0  0  0  0  0  0  0
   -4.9215  -19.3181   24.2368 H   0  0  0  0  0  0  0  0  0  0  0  0
   -3.4404  -20.9730   26.2734 H   0  0  0  0  0  0  0  0  0  0  0  0
   -4.9015  -21.3457   25.3682 H   0  0  0  0  0  0  0  0  0  0  0  0
   -3.4309  -22.6700   24.3664 H   0  0  0  0  0  0  0  0  0  0  0  0
   -2.5867  -21.8796   22.3275 H   0  0  0  0  0  0  0  0  0  0  0  0
   -4.1729  -21.2077   22.6285 H   0  0  0  0  0  0  0  0  0  0  0  0
  1  2  2  0
  2  3  1  0
  3  4  1  0
  4  5  2  0
  5  6  1  0
  6  7  2  0
  7  8  1  0
  8  9  2  0
  9 10  1  0
 10 11  2  0
 11 12  1  0
  2 13  1  0
 13 14  2  0
 14 15  1  0
 15 16  1  0
 16 17  2  0
 17 18  1  0
 18 19  1  0
 19 20  1  0
 20 21  1  0
 21 22  1  0
 22 23  1  0
 12  4  1  0
 17 13  1  0
 23 18  1  0
 12  7  1  0
  3 24  1  0
  5 25  1  0
  8 26  1  0
  9 27  1  0
 10 28  1  0
 11 29  1  0
 14 30  1  0
 15 31  1  0
 18 32  1  0
 19 33  1  0
 19 34  1  0
 20 35  1  0
 20 36  1  0
 21 37  1  0
 21 38  1  0
 22 39  1  0
 23 40  1  0
 23 41  1  0
M  END
>  <Energy>  (725) 
97.925132216424373

>  <compound_id>  (725) 
55977

>  <target_id>  (725) 
1

>  <reference_id>  (725) 
96

>  <inspiration_ids>  (725) 
[96, 103]

>  <energy_score>  (725) 
-38.112572401197326

>  <distance_score>  (725) 
15.426166015354074

>  <path>  (725) 
/opt/xchem-fragalysis-2/maxwin/BulkDock/SCRATCH/511022/C55977-P96/C55977-P96.minimised.mol

>  <scratch_subdir>  (725) 
/opt/xchem-fragalysis-2/maxwin/BulkDock/SCRATCH/511022/C55977-P96

>  <fragmenstein_runtime>  (725) 
21.100303411483765

>  <fragmenstein_outcome>  (725) 
too moved

>  <fragmenstein_mode>  (725) 
expansion

>  <fragmenstein_error>  (725) 


$$$$
C55977-P103
     RDKit          3D

 41 44  0  0  0  0  0  0  0  0999 V2000
    4.7430  -12.8289   19.0584 O   0  0  0  0  0  0  0  0  0  0  0  0
    4.7973  -12.5057   20.1833 C   0  0  0  0  0  0  0  0  0  0  0  0
    5.9323  -11.0861   20.6474 N   0  0  0  0  0  0  0  0  0  0  0  0
    7.0331   -9.8252   19.5609 C   0  0  0  0  0  0  0  0  0  0  0  0
    6.9189   -7.8673   19.8244 C   0  0  0  0  0  0  0  0  0  0  0  0
    7.1182   -6.2910   19.3179 N   0  0  0  0  0  0  0  0  0  0  0  0
    6.7740   -6.7744   18.2584 C   0  0  0  0  0  0  0  0  0  0  0  0
    6.4512   -5.9384   17.1362 C   0  0  0  0  0  0  0  0  0  0  0  0
    5.2788   -5.4464   17.3399 C   0  0  0  0  0  0  0  0  0  0  0  0
    4.6995   -6.7175   17.5634 C   0  0  0  0  0  0  0  0  0  0  0  0
    4.9254   -7.8285   18.3420 C   0  0  0  0  0  0  0  0  0  0  0  0
    6.0083   -8.0311   19.2995 N   0  0  0  0  0  0  0  0  0  0  0  0
    3.4497  -13.5242   21.2208 C   0  0  0  0  0  0  0  0  0  0  0  0
    2.3667  -14.5759   20.3785 C   0  0  0  0  0  0  0  0  0  0  0  0
    1.8033  -15.6439   21.0973 N   0  0  0  0  0  0  0  0  0  0  0  0
    2.0673  -15.7076   22.3847 N   0  0  0  0  0  0  0  0  0  0  0  0
    2.8746  -14.6247   22.7155 C   0  0  0  0  0  0  0  0  0  0  0  0
    2.8773  -14.7346   24.3033 C   0  0  0  0  0  0  0  0  0  0  0  0
    1.4023  -14.8746   24.9094 C   0  0  0  0  0  0  0  0  0  0  0  0
    1.0052  -16.2773   25.4052 C   0  0  0  0  0  0  0  0  0  0  0  0
    1.9728  -16.8004   26.4565 C   0  0  0  0  0  0  0  0  0  0  0  0
    3.3462  -16.3074   26.2813 N   0  0  0  0  0  0  0  0  0  0  0  0
    3.6470  -15.9778   24.8633 C   0  0  0  0  0  0  0  0  0  0  0  0
    5.8021  -10.8772   21.6226 H   0  0  0  0  0  0  0  0  0  0  0  0
    7.9421   -7.7559   19.6159 H   0  0  0  0  0  0  0  0  0  0  0  0
    7.0698   -5.4260   16.4209 H   0  0  0  0  0  0  0  0  0  0  0  0
    4.8710   -4.6499   16.7334 H   0  0  0  0  0  0  0  0  0  0  0  0
    4.2688   -6.7691   16.5791 H   0  0  0  0  0  0  0  0  0  0  0  0
    4.4814   -8.8355   18.2870 H   0  0  0  0  0  0  0  0  0  0  0  0
    2.4429  -14.7020   19.2817 H   0  0  0  0  0  0  0  0  0  0  0  0
    1.2554  -16.3900   20.6888 H   0  0  0  0  0  0  0  0  0  0  0  0
    3.3179  -13.8256   24.6548 H   0  0  0  0  0  0  0  0  0  0  0  0
    1.3233  -14.1937   25.7647 H   0  0  0  0  0  0  0  0  0  0  0  0
    0.6481  -14.5870   24.1767 H   0  0  0  0  0  0  0  0  0  0  0  0
   -0.0104  -16.2510   25.8167 H   0  0  0  0  0  0  0  0  0  0  0  0
    0.9803  -16.9682   24.5540 H   0  0  0  0  0  0  0  0  0  0  0  0
    1.6297  -16.5098   27.4563 H   0  0  0  0  0  0  0  0  0  0  0  0
    1.9760  -17.8960   26.4376 H   0  0  0  0  0  0  0  0  0  0  0  0
    3.4436  -15.4434   26.8172 H   0  0  0  0  0  0  0  0  0  0  0  0
    4.7214  -15.7741   24.7922 H   0  0  0  0  0  0  0  0  0  0  0  0
    3.4827  -16.8733   24.2513 H   0  0  0  0  0  0  0  0  0  0  0  0
  1  2  2  0
  2  3  1  0
  3  4  1  0
  4  5  2  0
  5  6  1  0
  6  7  2  0
  7  8  1  0
  8  9  2  0
  9 10  1  0
 10 11  2  0
 11 12  1  0
  2 13  1  0
 13 14  2  0
 14 15  1  0
 15 16  1  0
 16 17  2  0
 17 18  1  0
 18 19  1  0
 19 20  1  0
 20 21  1  0
 21 22  1  0
 22 23  1  0
 12  4  1  0
 17 13  1  0
 23 18  1  0
 12  7  1  0
  3 24  1  0
  5 25  1  0
  8 26  1  0
  9 27  1  0
 10 28  1  0
 11 29  1  0
 14 30  1  0
 15 31  1  0
 18 32  1  0
 19 33  1  0
 19 34  1  0
 20 35  1  0
 20 36  1  0
 21 37  1  0
 21 38  1  0
 22 39  1  0
 23 40  1  0
 23 41  1  0
M  END
>  <Energy>  (726) 
1320.911923066179

>  <compound_id>  (726) 
55977

>  <target_id>  (726) 
1

>  <reference_id>  (726) 
103

>  <inspiration_ids>  (726) 
[96, 103]

>  <energy_score>  (726) 
1184.8742184485554

>  <distance_score>  (726) 
14.099868149889357

>  <path>  (726) 
/opt/xchem-fragalysis-2/maxwin/BulkDock/SCRATCH/511022/C55977-P103/C55977-P103.minimised.mol

>  <scratch_subdir>  (726) 
/opt/xchem-fragalysis-2/maxwin/BulkDock/SCRATCH/511022/C55977-P103

>  <fragmenstein_runtime>  (726) 
32.81113290786743

>  <fragmenstein_outcome>  (726) 
too moved

>  <fragmenstein_mode>  (726) 
expansion

>  <fragmenstein_error>  (726) 


$$$$
C55978-P96
     RDKit          3D

 44 47  0  0  0  0  0  0  0  0999 V2000
    2.6852  -11.4919   29.1892 O   0  0  0  0  0  0  0  0  0  0  0  0
    2.6977  -11.6257   27.9937 C   0  0  0  0  0  0  0  0  0  0  0  0
    1.6620  -12.6719   27.3842 C   0  0  0  0  0  0  0  0  0  0  0  0
    0.5714  -13.2566   28.2646 N   0  0  0  0  0  0  0  0  0  0  0  0
   -0.3690  -12.5376   28.9597 C   0  0  0  0  0  0  0  0  0  0  0  0
   -1.2966  -13.4261   29.4492 C   0  0  0  0  0  0  0  0  0  0  0  0
   -0.9121  -14.7016   28.9710 C   0  0  0  0  0  0  0  0  0  0  0  0
   -1.6562  -16.0237   29.2394 C   0  0  0  0  0  0  0  0  0  0  0  0
   -3.1894  -15.8477   29.0970 C   0  0  0  0  0  0  0  0  0  0  0  0
   -3.9799  -17.0294   29.6458 C   0  0  0  0  0  0  0  0  0  0  0  0
   -3.5580  -17.3668   31.0687 C   0  0  0  0  0  0  0  0  0  0  0  0
   -2.1410  -17.7386   31.0657 N   0  0  0  0  0  0  0  0  0  0  0  0
   -1.3171  -16.5907   30.6442 C   0  0  0  0  0  0  0  0  0  0  0  0
    0.2166  -14.6017   28.2254 N   0  0  0  0  0  0  0  0  0  0  0  0
    3.6074  -11.0351   26.9580 N   0  0  0  0  0  0  0  0  0  0  0  0
    4.8353  -10.1822   27.1025 C   0  0  0  0  0  0  0  0  0  0  0  0
    5.2635   -9.1036   26.0466 C   0  0  0  0  0  0  0  0  0  0  0  0
    5.0100   -7.7236   26.0749 C   0  0  0  0  0  0  0  0  0  0  0  0
    5.8069   -7.1592   25.1123 N   0  0  0  0  0  0  0  0  0  0  0  0
    6.0827   -5.8891   24.6523 C   0  0  0  0  0  0  0  0  0  0  0  0
    7.0040   -5.8974   23.6704 C   0  0  0  0  0  0  0  0  0  0  0  0
    7.5559   -7.5408   23.2762 S   0  0  0  0  0  0  0  0  0  0  0  0
    6.4929   -8.1711   24.5156 C   0  0  0  0  0  0  0  0  0  0  0  0
    6.2102   -9.3519   25.0208 N   0  0  0  0  0  0  0  0  0  0  0  0
    1.1249  -12.1928   26.5607 H   0  0  0  0  0  0  0  0  0  0  0  0
    2.2316  -13.5372   27.0319 H   0  0  0  0  0  0  0  0  0  0  0  0
   -0.2804  -11.4658   29.0663 H   0  0  0  0  0  0  0  0  0  0  0  0
   -2.1454  -13.1756   30.0697 H   0  0  0  0  0  0  0  0  0  0  0  0
   -1.3320  -16.7570   28.4880 H   0  0  0  0  0  0  0  0  0  0  0  0
   -3.4457  -15.6835   28.0430 H   0  0  0  0  0  0  0  0  0  0  0  0
   -3.5254  -14.9530   29.6350 H   0  0  0  0  0  0  0  0  0  0  0  0
   -3.8208  -17.8916   28.9879 H   0  0  0  0  0  0  0  0  0  0  0  0
   -5.0444  -16.7754   29.6232 H   0  0  0  0  0  0  0  0  0  0  0  0
   -4.1497  -18.1899   31.4673 H   0  0  0  0  0  0  0  0  0  0  0  0
   -3.7302  -16.5136   31.7367 H   0  0  0  0  0  0  0  0  0  0  0  0
   -1.8733  -18.0066   32.0130 H   0  0  0  0  0  0  0  0  0  0  0  0
   -1.4020  -15.7983   31.4001 H   0  0  0  0  0  0  0  0  0  0  0  0
   -0.2656  -16.9028   30.6529 H   0  0  0  0  0  0  0  0  0  0  0  0
    3.3809  -11.4303   26.0495 H   0  0  0  0  0  0  0  0  0  0  0  0
    4.7511   -9.6876   28.0774 H   0  0  0  0  0  0  0  0  0  0  0  0
    5.6660  -10.8934   27.1831 H   0  0  0  0  0  0  0  0  0  0  0  0
    4.4035   -7.1223   26.7370 H   0  0  0  0  0  0  0  0  0  0  0  0
    5.5964   -5.0267   25.0814 H   0  0  0  0  0  0  0  0  0  0  0  0
    7.3954   -5.0261   23.1608 H   0  0  0  0  0  0  0  0  0  0  0  0
  1  2  2  0
  2  3  1  0
  3  4  1  0
  4  5  1  0
  5  6  2  0
  6  7  1  0
  7  8  1  0
  8  9  1  0
  9 10  1  0
 10 11  1  0
 11 12  1  0
 12 13  1  0
  7 14  2  0
  2 15  1  0
 15 16  1  0
 16 17  1  0
 17 18  2  0
 18 19  1  0
 19 20  1  0
 20 21  2  0
 21 22  1  0
 22 23  1  0
 23 24  2  0
 14  4  1  0
 24 17  1  0
 13  8  1  0
 23 19  1  0
  3 25  1  0
  3 26  1  0
  5 27  1  0
  6 28  1  0
  8 29  1  0
  9 30  1  0
  9 31  1  0
 10 32  1  0
 10 33  1  0
 11 34  1  0
 11 35  1  0
 12 36  1  0
 13 37  1  0
 13 38  1  0
 15 39  1  0
 16 40  1  0
 16 41  1  0
 18 42  1  0
 20 43  1  0
 21 44  1  0
M  END
>  <Energy>  (727) 
77.124374996328797

>  <compound_id>  (727) 
55978

>  <target_id>  (727) 
1

>  <reference_id>  (727) 
96

>  <inspiration_ids>  (727) 
[96, 103]

>  <energy_score>  (727) 
-13.51667813350059

>  <distance_score>  (727) 
14.095821151489234

>  <path>  (727) 
/opt/xchem-fragalysis-2/maxwin/BulkDock/SCRATCH/511022/C55978-P96/C55978-P96.minimised.mol

>  <scratch_subdir>  (727) 
/opt/xchem-fragalysis-2/maxwin/BulkDock/SCRATCH/511022/C55978-P96

>  <fragmenstein_runtime>  (727) 
30.05479097366333

>  <fragmenstein_outcome>  (727) 
too moved

>  <fragmenstein_mode>  (727) 
expansion

>  <fragmenstein_error>  (727) 


$$$$
C55978-P103
     RDKit          3D

 44 47  0  0  0  0  0  0  0  0999 V2000
  -10.1182  -13.4499   29.3226 O   0  0  0  0  0  0  0  0  0  0  0  0
  -10.2860  -13.4340   28.1258 C   0  0  0  0  0  0  0  0  0  0  0  0
  -11.7423  -14.2448   27.7232 C   0  0  0  0  0  0  0  0  0  0  0  0
  -11.6868  -15.7478   27.9665 N   0  0  0  0  0  0  0  0  0  0  0  0
  -10.5836  -16.3027   27.4406 C   0  0  0  0  0  0  0  0  0  0  0  0
  -10.4865  -17.4321   28.1677 C   0  0  0  0  0  0  0  0  0  0  0  0
  -11.9581  -18.0311   28.6755 C   0  0  0  0  0  0  0  0  0  0  0  0
  -12.3203  -20.0386   29.1073 C   0  0  0  0  0  0  0  0  0  0  0  0
  -12.9997  -21.3039   30.3680 C   0  0  0  0  0  0  0  0  0  0  0  0
  -12.1492  -21.4852   31.5675 C   0  0  0  0  0  0  0  0  0  0  0  0
  -11.1313  -22.2890   30.9101 C   0  0  0  0  0  0  0  0  0  0  0  0
  -11.3627  -22.6381   29.4536 N   0  0  0  0  0  0  0  0  0  0  0  0
  -11.4709  -21.4295   28.5445 C   0  0  0  0  0  0  0  0  0  0  0  0
  -12.6729  -16.7996   28.4807 N   0  0  0  0  0  0  0  0  0  0  0  0
   -9.4029  -12.8897   27.0165 N   0  0  0  0  0  0  0  0  0  0  0  0
   -7.9677  -12.2802   27.0659 C   0  0  0  0  0  0  0  0  0  0  0  0
   -7.1630  -11.3009   26.0508 C   0  0  0  0  0  0  0  0  0  0  0  0
   -7.5303  -10.4245   25.0219 C   0  0  0  0  0  0  0  0  0  0  0  0
   -6.4001   -9.6965   24.6790 N   0  0  0  0  0  0  0  0  0  0  0  0
   -6.0983   -8.6254   23.8597 C   0  0  0  0  0  0  0  0  0  0  0  0
   -4.8062   -8.2482   23.9586 C   0  0  0  0  0  0  0  0  0  0  0  0
   -3.9127   -9.2293   25.1294 S   0  0  0  0  0  0  0  0  0  0  0  0
   -5.3678  -10.1589   25.4325 C   0  0  0  0  0  0  0  0  0  0  0  0
   -5.7427  -11.1034   26.2661 N   0  0  0  0  0  0  0  0  0  0  0  0
  -12.5481  -13.8643   28.3557 H   0  0  0  0  0  0  0  0  0  0  0  0
  -11.9612  -14.1088   26.6605 H   0  0  0  0  0  0  0  0  0  0  0  0
   -9.8492  -15.7845   26.8391 H   0  0  0  0  0  0  0  0  0  0  0  0
   -9.5357  -17.9345   28.0168 H   0  0  0  0  0  0  0  0  0  0  0  0
  -13.3050  -19.9367   28.8441 H   0  0  0  0  0  0  0  0  0  0  0  0
  -14.0496  -21.2721   30.7798 H   0  0  0  0  0  0  0  0  0  0  0  0
  -13.2519  -22.1770   29.7762 H   0  0  0  0  0  0  0  0  0  0  0  0
  -11.7233  -20.5855   32.0104 H   0  0  0  0  0  0  0  0  0  0  0  0
  -12.6317  -21.9592   32.4244 H   0  0  0  0  0  0  0  0  0  0  0  0
  -10.8898  -23.1784   31.5029 H   0  0  0  0  0  0  0  0  0  0  0  0
  -10.3688  -21.5263   30.9927 H   0  0  0  0  0  0  0  0  0  0  0  0
  -10.7531  -23.3487   29.0593 H   0  0  0  0  0  0  0  0  0  0  0  0
  -10.4370  -21.2623   28.3048 H   0  0  0  0  0  0  0  0  0  0  0  0
  -11.9549  -21.7705   27.6245 H   0  0  0  0  0  0  0  0  0  0  0  0
   -9.8900  -12.9692   26.1336 H   0  0  0  0  0  0  0  0  0  0  0  0
   -7.3269  -13.1673   27.1544 H   0  0  0  0  0  0  0  0  0  0  0  0
   -7.9250  -11.7769   28.0403 H   0  0  0  0  0  0  0  0  0  0  0  0
   -8.4866  -10.2083   24.5700 H   0  0  0  0  0  0  0  0  0  0  0  0
   -6.8589   -8.1837   23.2355 H   0  0  0  0  0  0  0  0  0  0  0  0
   -4.3402   -7.4390   23.4127 H   0  0  0  0  0  0  0  0  0  0  0  0
  1  2  2  0
  2  3  1  0
  3  4  1  0
  4  5  1  0
  5  6  2  0
  6  7  1  0
  7  8  1  0
  8  9  1  0
  9 10  1  0
 10 11  1  0
 11 12  1  0
 12 13  1  0
  7 14  2  0
  2 15  1  0
 15 16  1  0
 16 17  1  0
 17 18  2  0
 18 19  1  0
 19 20  1  0
 20 21  2  0
 21 22  1  0
 22 23  1  0
 23 24  2  0
 14  4  1  0
 24 17  1  0
 13  8  1  0
 23 19  1  0
  3 25  1  0
  3 26  1  0
  5 27  1  0
  6 28  1  0
  8 29  1  0
  9 30  1  0
  9 31  1  0
 10 32  1  0
 10 33  1  0
 11 34  1  0
 11 35  1  0
 12 36  1  0
 13 37  1  0
 13 38  1  0
 15 39  1  0
 16 40  1  0
 16 41  1  0
 18 42  1  0
 20 43  1  0
 21 44  1  0
M  END
>  <Energy>  (728) 
440.55875711228509

>  <compound_id>  (728) 
55978

>  <target_id>  (728) 
1

>  <reference_id>  (728) 
103

>  <inspiration_ids>  (728) 
[96, 103]

>  <energy_score>  (728) 
349.9177039824481

>  <distance_score>  (728) 
17.82681228291241

>  <path>  (728) 
/opt/xchem-fragalysis-2/maxwin/BulkDock/SCRATCH/511022/C55978-P103/C55978-P103.minimised.mol

>  <scratch_subdir>  (728) 
/opt/xchem-fragalysis-2/maxwin/BulkDock/SCRATCH/511022/C55978-P103

>  <fragmenstein_runtime>  (728) 
31.419612646102905

>  <fragmenstein_outcome>  (728) 
too moved

>  <fragmenstein_mode>  (728) 
expansion

>  <fragmenstein_error>  (728) 


$$$$
C54465-P107
     RDKit          3D

 34 36  0  0  0  0  0  0  0  0999 V2000
  -17.1020  -14.7750   37.0742 O   0  0  0  0  0  0  0  0  0  0  0  0
  -16.0044  -14.3003   36.9497 C   0  0  0  0  0  0  0  0  0  0  0  0
  -14.9190  -15.1739   36.2040 C   0  0  0  0  0  0  0  0  0  0  0  0
  -15.4462  -16.4674   35.8413 O   0  0  0  0  0  0  0  0  0  0  0  0
  -14.5428  -17.4333   35.4627 C   0  0  0  0  0  0  0  0  0  0  0  0
  -15.0819  -18.6011   34.9308 C   0  0  0  0  0  0  0  0  0  0  0  0
  -14.2184  -19.6048   34.5132 C   0  0  0  0  0  0  0  0  0  0  0  0
  -12.8524  -19.4226   34.6849 C   0  0  0  0  0  0  0  0  0  0  0  0
  -12.4109  -18.2279   35.2309 C   0  0  0  0  0  0  0  0  0  0  0  0
  -13.2260  -17.2239   35.6283 N   0  0  0  0  0  0  0  0  0  0  0  0
  -15.4448  -13.0546   37.4629 N   0  0  0  0  0  0  0  0  0  0  0  0
  -16.0061  -12.0596   38.3561 C   0  0  0  0  0  0  0  0  0  0  0  0
  -15.7219  -10.5964   38.1492 C   0  0  0  0  0  0  0  0  0  0  0  0
  -14.4905   -9.9793   38.7435 C   0  0  0  0  0  0  0  0  0  0  0  0
  -14.2837   -8.7171   38.9787 N   0  0  0  0  0  0  0  0  0  0  0  0
  -15.2821   -7.8540   38.6278 C   0  0  0  0  0  0  0  0  0  0  0  0
  -15.3159   -6.5373   38.7092 N   0  0  0  0  0  0  0  0  0  0  0  0
  -16.5112   -6.1525   38.1659 C   0  0  0  0  0  0  0  0  0  0  0  0
  -17.2182   -7.2447   37.7228 C   0  0  0  0  0  0  0  0  0  0  0  0
  -16.4255   -8.3269   38.0024 N   0  0  0  0  0  0  0  0  0  0  0  0
  -16.6465   -9.6826   37.7840 C   0  0  0  0  0  0  0  0  0  0  0  0
  -14.0941  -15.3033   36.9074 H   0  0  0  0  0  0  0  0  0  0  0  0
  -14.5969  -14.6415   35.3033 H   0  0  0  0  0  0  0  0  0  0  0  0
  -16.1572  -18.7133   34.8389 H   0  0  0  0  0  0  0  0  0  0  0  0
  -14.6042  -20.5268   34.0854 H   0  0  0  0  0  0  0  0  0  0  0  0
  -12.1462  -20.1852   34.3788 H   0  0  0  0  0  0  0  0  0  0  0  0
  -11.3505  -18.0259   35.3424 H   0  0  0  0  0  0  0  0  0  0  0  0
  -14.4475  -13.0139   37.2283 H   0  0  0  0  0  0  0  0  0  0  0  0
  -17.0905  -12.2275   38.3625 H   0  0  0  0  0  0  0  0  0  0  0  0
  -15.6645  -12.3429   39.3595 H   0  0  0  0  0  0  0  0  0  0  0  0
  -13.6943  -10.6953   39.0123 H   0  0  0  0  0  0  0  0  0  0  0  0
  -16.7991   -5.1093   38.1236 H   0  0  0  0  0  0  0  0  0  0  0  0
  -18.1848   -7.3397   37.2505 H   0  0  0  0  0  0  0  0  0  0  0  0
  -17.6244   -9.9589   37.4081 H   0  0  0  0  0  0  0  0  0  0  0  0
  1  2  2  0
  2  3  1  0
  3  4  1  0
  4  5  1  0
  5  6  2  0
  6  7  1  0
  7  8  2  0
  8  9  1  0
  9 10  2  0
  2 11  1  0
 11 12  1  0
 12 13  1  0
 13 14  1  0
 14 15  2  0
 15 16  1  0
 16 17  2  0
 17 18  1  0
 18 19  2  0
 19 20  1  0
 20 21  1  0
 10  5  1  0
 21 13  2  0
 20 16  1  0
  3 22  1  0
  3 23  1  0
  6 24  1  0
  7 25  1  0
  8 26  1  0
  9 27  1  0
 11 28  1  0
 12 29  1  0
 12 30  1  0
 14 31  1  0
 18 32  1  0
 19 33  1  0
 21 34  1  0
M  END
>  <Energy>  (729) 
34.857162763357266

>  <compound_id>  (729) 
54465

>  <target_id>  (729) 
1

>  <reference_id>  (729) 
107

>  <inspiration_ids>  (729) 
[107, 7]

>  <energy_score>  (729) 
-10.133998934577221

>  <distance_score>  (729) 
8.18257024043293

>  <path>  (729) 
/opt/xchem-fragalysis-2/maxwin/BulkDock/SCRATCH/511022/C54465-P107/C54465-P107.minimised.mol

>  <scratch_subdir>  (729) 
/opt/xchem-fragalysis-2/maxwin/BulkDock/SCRATCH/511022/C54465-P107

>  <fragmenstein_runtime>  (729) 
17.27631950378418

>  <fragmenstein_outcome>  (729) 
too moved

>  <fragmenstein_mode>  (729) 
expansion

>  <fragmenstein_error>  (729) 


$$$$
C54465-P7
     RDKit          3D

 34 36  0  0  0  0  0  0  0  0999 V2000
  -16.8239  -13.9413   36.6576 O   0  0  0  0  0  0  0  0  0  0  0  0
  -15.9755  -14.2811   35.8808 C   0  0  0  0  0  0  0  0  0  0  0  0
  -15.6140  -15.8411   35.8648 C   0  0  0  0  0  0  0  0  0  0  0  0
  -14.4569  -16.3394   35.1796 O   0  0  0  0  0  0  0  0  0  0  0  0
  -14.4793  -17.7206   35.0150 C   0  0  0  0  0  0  0  0  0  0  0  0
  -13.2780  -18.4042   35.0373 C   0  0  0  0  0  0  0  0  0  0  0  0
  -13.2813  -19.7530   34.6750 C   0  0  0  0  0  0  0  0  0  0  0  0
  -14.4648  -20.3753   34.2819 C   0  0  0  0  0  0  0  0  0  0  0  0
  -15.6146  -19.6180   34.2954 C   0  0  0  0  0  0  0  0  0  0  0  0
  -15.6361  -18.2987   34.6142 N   0  0  0  0  0  0  0  0  0  0  0  0
  -15.2399  -13.5233   34.9047 N   0  0  0  0  0  0  0  0  0  0  0  0
  -15.3606  -12.1248   34.4821 C   0  0  0  0  0  0  0  0  0  0  0  0
  -15.1212  -10.9810   35.4524 C   0  0  0  0  0  0  0  0  0  0  0  0
  -15.6520   -9.6419   34.9842 C   0  0  0  0  0  0  0  0  0  0  0  0
  -15.7459   -8.5296   35.6443 N   0  0  0  0  0  0  0  0  0  0  0  0
  -15.2100   -8.5376   36.8946 C   0  0  0  0  0  0  0  0  0  0  0  0
  -15.1536   -7.5651   37.7835 N   0  0  0  0  0  0  0  0  0  0  0  0
  -14.4935   -8.0862   38.8654 C   0  0  0  0  0  0  0  0  0  0  0  0
  -14.1186   -9.3878   38.6319 C   0  0  0  0  0  0  0  0  0  0  0  0
  -14.5876   -9.6830   37.3784 N   0  0  0  0  0  0  0  0  0  0  0  0
  -14.5538  -10.8854   36.6681 C   0  0  0  0  0  0  0  0  0  0  0  0
  -16.5358  -16.3249   35.5218 H   0  0  0  0  0  0  0  0  0  0  0  0
  -15.4867  -16.1095   36.9229 H   0  0  0  0  0  0  0  0  0  0  0  0
  -12.3507  -17.9030   35.2907 H   0  0  0  0  0  0  0  0  0  0  0  0
  -12.3607  -20.3221   34.6772 H   0  0  0  0  0  0  0  0  0  0  0  0
  -14.4815  -21.4236   33.9946 H   0  0  0  0  0  0  0  0  0  0  0  0
  -16.5730  -20.0499   34.0209 H   0  0  0  0  0  0  0  0  0  0  0  0
  -14.6578  -14.1586   34.3616 H   0  0  0  0  0  0  0  0  0  0  0  0
  -14.7065  -11.9997   33.6171 H   0  0  0  0  0  0  0  0  0  0  0  0
  -16.3927  -12.0475   34.1233 H   0  0  0  0  0  0  0  0  0  0  0  0
  -15.9999   -9.6309   33.9411 H   0  0  0  0  0  0  0  0  0  0  0  0
  -14.3080   -7.4922   39.7508 H   0  0  0  0  0  0  0  0  0  0  0  0
  -13.5819  -10.1099   39.2311 H   0  0  0  0  0  0  0  0  0  0  0  0
  -14.0974  -11.7152   37.1805 H   0  0  0  0  0  0  0  0  0  0  0  0
  1  2  2  0
  2  3  1  0
  3  4  1  0
  4  5  1  0
  5  6  2  0
  6  7  1  0
  7  8  2  0
  8  9  1  0
  9 10  2  0
  2 11  1  0
 11 12  1  0
 12 13  1  0
 13 14  1  0
 14 15  2  0
 15 16  1  0
 16 17  2  0
 17 18  1  0
 18 19  2  0
 19 20  1  0
 20 21  1  0
 10  5  1  0
 21 13  2  0
 20 16  1  0
  3 22  1  0
  3 23  1  0
  6 24  1  0
  7 25  1  0
  8 26  1  0
  9 27  1  0
 11 28  1  0
 12 29  1  0
 12 30  1  0
 14 31  1  0
 18 32  1  0
 19 33  1  0
 21 34  1  0
M  END
>  <Energy>  (730) 
33.85437223750133

>  <compound_id>  (730) 
54465

>  <target_id>  (730) 
1

>  <reference_id>  (730) 
7

>  <inspiration_ids>  (730) 
[107, 7]

>  <energy_score>  (730) 
-11.136789460433192

>  <distance_score>  (730) 
8.224228124441119

>  <path>  (730) 
/opt/xchem-fragalysis-2/maxwin/BulkDock/SCRATCH/511022/C54465-P7/C54465-P7.minimised.mol

>  <scratch_subdir>  (730) 
/opt/xchem-fragalysis-2/maxwin/BulkDock/SCRATCH/511022/C54465-P7

>  <fragmenstein_runtime>  (730) 
12.58756971359253

>  <fragmenstein_outcome>  (730) 
too moved

>  <fragmenstein_mode>  (730) 
expansion

>  <fragmenstein_error>  (730) 


$$$$
C54466-P107
     RDKit          3D

 36 38  0  0  0  0  0  0  0  0999 V2000
  -16.7552  -14.6206   37.7295 O   0  0  0  0  0  0  0  0  0  0  0  0
  -15.7758  -14.0950   37.2834 C   0  0  0  0  0  0  0  0  0  0  0  0
  -15.1288  -12.8054   37.6349 N   0  0  0  0  0  0  0  0  0  0  0  0
  -15.4698  -11.7161   38.8253 S   0  0  0  0  0  0  0  0  0  0  0  0
  -14.4380  -11.8985   39.8283 O   0  0  0  0  0  0  0  0  0  0  0  0
  -16.8635  -11.8547   39.1861 O   0  0  0  0  0  0  0  0  0  0  0  0
  -15.2618  -10.0354   38.1269 C   0  0  0  0  0  0  0  0  0  0  0  0
  -15.3891   -8.9836   39.2529 C   0  0  0  0  0  0  0  0  0  0  0  0
  -15.3554   -7.5095   38.8815 C   0  0  0  0  0  0  0  0  0  0  0  0
  -14.7514   -6.5827   39.7411 C   0  0  0  0  0  0  0  0  0  0  0  0
  -14.7971   -5.2175   39.4386 C   0  0  0  0  0  0  0  0  0  0  0  0
  -15.4749   -4.7963   38.3043 C   0  0  0  0  0  0  0  0  0  0  0  0
  -16.0648   -5.7685   37.5134 C   0  0  0  0  0  0  0  0  0  0  0  0
  -16.0005   -7.1052   37.7617 N   0  0  0  0  0  0  0  0  0  0  0  0
  -15.0198  -14.8230   36.2479 C   0  0  0  0  0  0  0  0  0  0  0  0
  -14.2425  -14.3335   35.2149 C   0  0  0  0  0  0  0  0  0  0  0  0
  -13.6062  -15.3199   34.5179 N   0  0  0  0  0  0  0  0  0  0  0  0
  -14.1015  -16.4522   34.9607 C   0  0  0  0  0  0  0  0  0  0  0  0
  -13.9017  -17.7125   34.4628 N   0  0  0  0  0  0  0  0  0  0  0  0
  -14.5532  -18.6733   35.0360 C   0  0  0  0  0  0  0  0  0  0  0  0
  -15.5140  -18.5207   36.1547 C   0  0  0  0  0  0  0  0  0  0  0  0
  -15.6851  -17.2677   36.6030 C   0  0  0  0  0  0  0  0  0  0  0  0
  -14.9949  -16.2079   36.0143 N   0  0  0  0  0  0  0  0  0  0  0  0
  -14.2540  -12.7115   37.1061 H   0  0  0  0  0  0  0  0  0  0  0  0
  -16.0393   -9.9131   37.3681 H   0  0  0  0  0  0  0  0  0  0  0  0
  -14.2695   -9.9998   37.6696 H   0  0  0  0  0  0  0  0  0  0  0  0
  -16.3301   -9.1493   39.7929 H   0  0  0  0  0  0  0  0  0  0  0  0
  -14.5873   -9.1751   39.9778 H   0  0  0  0  0  0  0  0  0  0  0  0
  -14.2479   -6.9136   40.6456 H   0  0  0  0  0  0  0  0  0  0  0  0
  -14.3200   -4.4957   40.0961 H   0  0  0  0  0  0  0  0  0  0  0  0
  -15.5461   -3.7457   38.0455 H   0  0  0  0  0  0  0  0  0  0  0  0
  -16.6225   -5.4950   36.6213 H   0  0  0  0  0  0  0  0  0  0  0  0
  -14.0810  -13.2931   34.9568 H   0  0  0  0  0  0  0  0  0  0  0  0
  -14.4172  -19.7021   34.6644 H   0  0  0  0  0  0  0  0  0  0  0  0
  -16.0375  -19.3813   36.5449 H   0  0  0  0  0  0  0  0  0  0  0  0
  -16.3774  -17.0303   37.4022 H   0  0  0  0  0  0  0  0  0  0  0  0
  1  2  2  0
  2  3  1  0
  3  4  1  0
  4  5  2  0
  4  6  2  0
  4  7  1  0
  7  8  1  0
  8  9  1  0
  9 10  2  0
 10 11  1  0
 11 12  2  0
 12 13  1  0
 13 14  2  0
  2 15  1  0
 15 16  2  0
 16 17  1  0
 17 18  2  0
 18 19  1  0
 19 20  2  0
 20 21  1  0
 21 22  2  0
 22 23  1  0
 14  9  1  0
 23 15  1  0
 23 18  1  0
  3 24  1  0
  7 25  1  0
  7 26  1  0
  8 27  1  0
  8 28  1  0
 10 29  1  0
 11 30  1  0
 12 31  1  0
 13 32  1  0
 16 33  1  0
 20 34  1  0
 21 35  1  0
 22 36  1  0
M  END
>  <Energy>  (731) 
-114.64921121672148

>  <compound_id>  (731) 
54466

>  <target_id>  (731) 
1

>  <reference_id>  (731) 
107

>  <inspiration_ids>  (731) 
[107, 7]

>  <energy_score>  (731) 
-48.017030167759245

>  <distance_score>  (731) 
8.05896052798357

>  <path>  (731) 
/opt/xchem-fragalysis-2/maxwin/BulkDock/SCRATCH/511022/C54466-P107/C54466-P107.minimised.mol

>  <scratch_subdir>  (731) 
/opt/xchem-fragalysis-2/maxwin/BulkDock/SCRATCH/511022/C54466-P107

>  <fragmenstein_runtime>  (731) 
9.928093910217285

>  <fragmenstein_outcome>  (731) 
too moved

>  <fragmenstein_mode>  (731) 
expansion

>  <fragmenstein_error>  (731) 


$$$$
C54466-P7
     RDKit          3D

 36 38  0  0  0  0  0  0  0  0999 V2000
  -14.0791  -14.0286   34.4903 O   0  0  0  0  0  0  0  0  0  0  0  0
  -15.1453  -14.1672   35.0195 C   0  0  0  0  0  0  0  0  0  0  0  0
  -16.2023  -13.1826   35.3175 N   0  0  0  0  0  0  0  0  0  0  0  0
  -16.3309  -11.5841   34.9298 S   0  0  0  0  0  0  0  0  0  0  0  0
  -17.7649  -11.3713   34.8600 O   0  0  0  0  0  0  0  0  0  0  0  0
  -15.5233  -11.3509   33.7544 O   0  0  0  0  0  0  0  0  0  0  0  0
  -15.6898  -10.5150   36.2879 C   0  0  0  0  0  0  0  0  0  0  0  0
  -15.9843   -9.0399   35.9134 C   0  0  0  0  0  0  0  0  0  0  0  0
  -15.6467   -7.9401   36.9034 C   0  0  0  0  0  0  0  0  0  0  0  0
  -15.9754   -6.6133   36.5874 C   0  0  0  0  0  0  0  0  0  0  0  0
  -15.6643   -5.5835   37.4763 C   0  0  0  0  0  0  0  0  0  0  0  0
  -15.0623   -5.9017   38.6823 C   0  0  0  0  0  0  0  0  0  0  0  0
  -14.7769   -7.2374   38.9281 C   0  0  0  0  0  0  0  0  0  0  0  0
  -15.0410   -8.2559   38.0663 N   0  0  0  0  0  0  0  0  0  0  0  0
  -15.4964  -15.5516   35.4414 C   0  0  0  0  0  0  0  0  0  0  0  0
  -16.6208  -16.0751   36.0642 C   0  0  0  0  0  0  0  0  0  0  0  0
  -16.6478  -17.4439   36.0361 N   0  0  0  0  0  0  0  0  0  0  0  0
  -15.5368  -17.8231   35.4590 C   0  0  0  0  0  0  0  0  0  0  0  0
  -15.1444  -19.0865   35.1304 N   0  0  0  0  0  0  0  0  0  0  0  0
  -13.8858  -19.2483   34.8722 C   0  0  0  0  0  0  0  0  0  0  0  0
  -12.8882  -18.1636   34.7971 C   0  0  0  0  0  0  0  0  0  0  0  0
  -13.3867  -16.9201   34.8608 C   0  0  0  0  0  0  0  0  0  0  0  0
  -14.7191  -16.7153   35.2211 N   0  0  0  0  0  0  0  0  0  0  0  0
  -17.0101  -13.6657   35.6993 H   0  0  0  0  0  0  0  0  0  0  0  0
  -16.2128  -10.8072   37.2027 H   0  0  0  0  0  0  0  0  0  0  0  0
  -14.6171  -10.7049   36.3812 H   0  0  0  0  0  0  0  0  0  0  0  0
  -15.4721   -8.8193   34.9701 H   0  0  0  0  0  0  0  0  0  0  0  0
  -17.0587   -8.9507   35.7052 H   0  0  0  0  0  0  0  0  0  0  0  0
  -16.4572   -6.3799   35.6418 H   0  0  0  0  0  0  0  0  0  0  0  0
  -15.9033   -4.5535   37.2290 H   0  0  0  0  0  0  0  0  0  0  0  0
  -14.8175   -5.1385   39.4116 H   0  0  0  0  0  0  0  0  0  0  0  0
  -14.2951   -7.5401   39.8548 H   0  0  0  0  0  0  0  0  0  0  0  0
  -17.4793  -15.5496   36.4655 H   0  0  0  0  0  0  0  0  0  0  0  0
  -13.5059  -20.2544   34.6279 H   0  0  0  0  0  0  0  0  0  0  0  0
  -11.8638  -18.4023   34.5588 H   0  0  0  0  0  0  0  0  0  0  0  0
  -12.7569  -16.0661   34.6561 H   0  0  0  0  0  0  0  0  0  0  0  0
  1  2  2  0
  2  3  1  0
  3  4  1  0
  4  5  2  0
  4  6  2  0
  4  7  1  0
  7  8  1  0
  8  9  1  0
  9 10  2  0
 10 11  1  0
 11 12  2  0
 12 13  1  0
 13 14  2  0
  2 15  1  0
 15 16  2  0
 16 17  1  0
 17 18  2  0
 18 19  1  0
 19 20  2  0
 20 21  1  0
 21 22  2  0
 22 23  1  0
 14  9  1  0
 23 15  1  0
 23 18  1  0
  3 24  1  0
  7 25  1  0
  7 26  1  0
  8 27  1  0
  8 28  1  0
 10 29  1  0
 11 30  1  0
 12 31  1  0
 13 32  1  0
 16 33  1  0
 20 34  1  0
 21 35  1  0
 22 36  1  0
M  END
>  <Energy>  (732) 
-115.40871970993386

>  <compound_id>  (732) 
54466

>  <target_id>  (732) 
1

>  <reference_id>  (732) 
7

>  <inspiration_ids>  (732) 
[107, 7]

>  <energy_score>  (732) 
-48.77653866097303

>  <distance_score>  (732) 
7.866964400595456

>  <path>  (732) 
/opt/xchem-fragalysis-2/maxwin/BulkDock/SCRATCH/511022/C54466-P7/C54466-P7.minimised.mol

>  <scratch_subdir>  (732) 
/opt/xchem-fragalysis-2/maxwin/BulkDock/SCRATCH/511022/C54466-P7

>  <fragmenstein_runtime>  (732) 
7.216052770614624

>  <fragmenstein_outcome>  (732) 
too moved

>  <fragmenstein_mode>  (732) 
expansion

>  <fragmenstein_error>  (732) 


$$$$
C17677-P107
     RDKit          3D

 41 44  0  0  0  0  0  0  0  0999 V2000
  -15.6993   -7.0126   38.3685 C   0  0  0  0  0  0  0  0  0  0  0  0
  -16.0309   -8.2527   37.7842 C   0  0  0  0  0  0  0  0  0  0  0  0
  -15.2526   -9.4482   37.9922 C   0  0  0  0  0  0  0  0  0  0  0  0
  -15.6910  -10.9312   37.3667 C   0  0  0  0  0  0  0  0  0  0  0  0
  -16.1584  -12.0319   38.4030 C   0  0  0  0  0  0  0  0  0  0  0  0
  -15.3320  -13.3575   38.5714 C   0  0  0  0  0  0  0  0  0  0  0  0
  -15.5591  -14.6630   37.6919 C   0  0  0  0  0  0  0  0  0  0  0  0
  -14.9939  -14.6328   36.3211 N   0  0  0  0  0  0  0  0  0  0  0  0
  -14.4717  -15.8183   35.5266 C   0  0  0  0  0  0  0  0  0  0  0  0
  -13.7104  -15.4956   34.4748 C   0  0  0  0  0  0  0  0  0  0  0  0
  -13.1424  -16.5198   33.6429 C   0  0  0  0  0  0  0  0  0  0  0  0
  -13.2820  -17.7917   33.7994 N   0  0  0  0  0  0  0  0  0  0  0  0
  -14.1071  -18.1983   34.7662 C   0  0  0  0  0  0  0  0  0  0  0  0
  -14.6727  -19.3794   34.8140 N   0  0  0  0  0  0  0  0  0  0  0  0
  -15.6136  -19.2587   35.7812 C   0  0  0  0  0  0  0  0  0  0  0  0
  -15.5655  -18.0199   36.3821 C   0  0  0  0  0  0  0  0  0  0  0  0
  -14.6912  -17.2614   35.6460 N   0  0  0  0  0  0  0  0  0  0  0  0
  -15.4493  -13.2622   35.6533 C   0  0  0  0  0  0  0  0  0  0  0  0
  -14.9880  -11.7554   36.1609 C   0  0  0  0  0  0  0  0  0  0  0  0
  -14.1968   -9.2717   38.8874 C   0  0  0  0  0  0  0  0  0  0  0  0
  -13.9670   -7.9999   39.4776 C   0  0  0  0  0  0  0  0  0  0  0  0
  -14.6649   -6.8593   39.2090 N   0  0  0  0  0  0  0  0  0  0  0  0
  -16.2954   -6.1248   38.1806 H   0  0  0  0  0  0  0  0  0  0  0  0
  -16.9184   -8.3011   37.1559 H   0  0  0  0  0  0  0  0  0  0  0  0
  -16.6446  -10.6315   36.9000 H   0  0  0  0  0  0  0  0  0  0  0  0
  -16.2218  -11.5531   39.3887 H   0  0  0  0  0  0  0  0  0  0  0  0
  -17.1857  -12.3269   38.1504 H   0  0  0  0  0  0  0  0  0  0  0  0
  -15.5617  -13.6930   39.5936 H   0  0  0  0  0  0  0  0  0  0  0  0
  -14.2851  -13.0791   38.6001 H   0  0  0  0  0  0  0  0  0  0  0  0
  -15.0912  -15.4956   38.2300 H   0  0  0  0  0  0  0  0  0  0  0  0
  -16.6332  -14.8738   37.6352 H   0  0  0  0  0  0  0  0  0  0  0  0
  -13.5460  -14.4826   34.1639 H   0  0  0  0  0  0  0  0  0  0  0  0
  -12.6494  -16.0638   32.7679 H   0  0  0  0  0  0  0  0  0  0  0  0
  -16.2855  -20.0737   36.0213 H   0  0  0  0  0  0  0  0  0  0  0  0
  -16.1649  -17.5829   37.1643 H   0  0  0  0  0  0  0  0  0  0  0  0
  -15.1826  -13.3059   34.5929 H   0  0  0  0  0  0  0  0  0  0  0  0
  -16.5472  -13.2725   35.6675 H   0  0  0  0  0  0  0  0  0  0  0  0
  -13.9135  -11.6567   36.2216 H   0  0  0  0  0  0  0  0  0  0  0  0
  -15.2450  -11.1591   35.2796 H   0  0  0  0  0  0  0  0  0  0  0  0
  -13.5584  -10.1087   39.1591 H   0  0  0  0  0  0  0  0  0  0  0  0
  -13.1491   -7.8723   40.1848 H   0  0  0  0  0  0  0  0  0  0  0  0
  1  2  2  0
  2  3  1  0
  3  4  1  0
  4  5  1  0
  5  6  1  0
  6  7  1  0
  7  8  1  0
  8  9  1  0
  9 10  2  0
 10 11  1  0
 11 12  2  0
 12 13  1  0
 13 14  2  0
 14 15  1  0
 15 16  2  0
 16 17  1  0
  8 18  1  0
 18 19  1  0
  3 20  2  0
 20 21  1  0
 21 22  2  0
 22  1  1  0
 19  4  1  0
 17  9  1  0
 17 13  1  0
  1 23  1  0
  2 24  1  0
  4 25  1  0
  5 26  1  0
  5 27  1  0
  6 28  1  0
  6 29  1  0
  7 30  1  0
  7 31  1  0
 10 32  1  0
 11 33  1  0
 15 34  1  0
 16 35  1  0
 18 36  1  0
 18 37  1  0
 19 38  1  0
 19 39  1  0
 20 40  1  0
 21 41  1  0
M  END
>  <Energy>  (733) 
159.62688569555988

>  <compound_id>  (733) 
17677

>  <target_id>  (733) 
1

>  <reference_id>  (733) 
107

>  <inspiration_ids>  (733) 
[107, 7]

>  <energy_score>  (733) 
32.535662494672124

>  <distance_score>  (733) 
8.637797099334682

>  <path>  (733) 
/opt/xchem-fragalysis-2/maxwin/BulkDock/SCRATCH/511022/C17677-P107/C17677-P107.minimised.mol

>  <scratch_subdir>  (733) 
/opt/xchem-fragalysis-2/maxwin/BulkDock/SCRATCH/511022/C17677-P107

>  <fragmenstein_runtime>  (733) 
7.804905414581299

>  <fragmenstein_outcome>  (733) 
too moved

>  <fragmenstein_mode>  (733) 
expansion

>  <fragmenstein_error>  (733) 


$$$$
C17677-P7
     RDKit          3D

 41 44  0  0  0  0  0  0  0  0999 V2000
  -13.9418   -9.4267   35.8193 C   0  0  0  0  0  0  0  0  0  0  0  0
  -14.2126  -10.7122   35.3556 C   0  0  0  0  0  0  0  0  0  0  0  0
  -14.9322  -11.5849   36.1538 C   0  0  0  0  0  0  0  0  0  0  0  0
  -15.4029  -13.0955   35.6360 C   0  0  0  0  0  0  0  0  0  0  0  0
  -16.1920  -14.0636   36.6231 C   0  0  0  0  0  0  0  0  0  0  0  0
  -16.4551  -15.5736   36.2209 C   0  0  0  0  0  0  0  0  0  0  0  0
  -15.3566  -16.7049   36.2255 C   0  0  0  0  0  0  0  0  0  0  0  0
  -14.6696  -16.9855   34.9109 N   0  0  0  0  0  0  0  0  0  0  0  0
  -13.9561  -18.3413   34.6989 C   0  0  0  0  0  0  0  0  0  0  0  0
  -12.6160  -18.4464   34.6397 C   0  0  0  0  0  0  0  0  0  0  0  0
  -12.0379  -19.6481   33.9726 C   0  0  0  0  0  0  0  0  0  0  0  0
  -12.6069  -20.7594   33.6543 N   0  0  0  0  0  0  0  0  0  0  0  0
  -13.9361  -20.7595   33.9083 C   0  0  0  0  0  0  0  0  0  0  0  0
  -14.7851  -21.7006   33.5973 N   0  0  0  0  0  0  0  0  0  0  0  0
  -16.0151  -21.1980   33.8320 C   0  0  0  0  0  0  0  0  0  0  0  0
  -15.9440  -19.9020   34.2788 C   0  0  0  0  0  0  0  0  0  0  0  0
  -14.6152  -19.5911   34.3621 N   0  0  0  0  0  0  0  0  0  0  0  0
  -14.0113  -15.6496   34.4015 C   0  0  0  0  0  0  0  0  0  0  0  0
  -14.7153  -14.0913   34.4731 C   0  0  0  0  0  0  0  0  0  0  0  0
  -15.3710  -10.9858   37.3674 C   0  0  0  0  0  0  0  0  0  0  0  0
  -15.0455   -9.6460   37.7241 C   0  0  0  0  0  0  0  0  0  0  0  0
  -14.3214   -8.8282   36.9607 N   0  0  0  0  0  0  0  0  0  0  0  0
  -13.2694   -8.8924   35.2047 H   0  0  0  0  0  0  0  0  0  0  0  0
  -13.8490  -11.0159   34.3807 H   0  0  0  0  0  0  0  0  0  0  0  0
  -16.2377  -12.7017   35.0237 H   0  0  0  0  0  0  0  0  0  0  0  0
  -15.8197  -14.0375   37.6496 H   0  0  0  0  0  0  0  0  0  0  0  0
  -17.1919  -13.6137   36.7282 H   0  0  0  0  0  0  0  0  0  0  0  0
  -17.1798  -15.9092   36.9788 H   0  0  0  0  0  0  0  0  0  0  0  0
  -17.0252  -15.5889   35.2935 H   0  0  0  0  0  0  0  0  0  0  0  0
  -15.8612  -17.6342   36.5176 H   0  0  0  0  0  0  0  0  0  0  0  0
  -14.6080  -16.5035   36.9979 H   0  0  0  0  0  0  0  0  0  0  0  0
  -11.9396  -17.6308   34.8462 H   0  0  0  0  0  0  0  0  0  0  0  0
  -11.0302  -19.4531   33.5952 H   0  0  0  0  0  0  0  0  0  0  0  0
  -16.9018  -21.7926   33.6549 H   0  0  0  0  0  0  0  0  0  0  0  0
  -16.7093  -19.1899   34.5463 H   0  0  0  0  0  0  0  0  0  0  0  0
  -13.8424  -15.8233   33.3400 H   0  0  0  0  0  0  0  0  0  0  0  0
  -12.9836  -15.6185   34.7660 H   0  0  0  0  0  0  0  0  0  0  0  0
  -15.5570  -14.1965   33.7829 H   0  0  0  0  0  0  0  0  0  0  0  0
  -13.9982  -13.4485   33.9657 H   0  0  0  0  0  0  0  0  0  0  0  0
  -15.9846  -11.5555   38.0608 H   0  0  0  0  0  0  0  0  0  0  0  0
  -15.3910   -9.2313   38.6670 H   0  0  0  0  0  0  0  0  0  0  0  0
  1  2  2  0
  2  3  1  0
  3  4  1  0
  4  5  1  0
  5  6  1  0
  6  7  1  0
  7  8  1  0
  8  9  1  0
  9 10  2  0
 10 11  1  0
 11 12  2  0
 12 13  1  0
 13 14  2  0
 14 15  1  0
 15 16  2  0
 16 17  1  0
  8 18  1  0
 18 19  1  0
  3 20  2  0
 20 21  1  0
 21 22  2  0
 22  1  1  0
 19  4  1  0
 17  9  1  0
 17 13  1  0
  1 23  1  0
  2 24  1  0
  4 25  1  0
  5 26  1  0
  5 27  1  0
  6 28  1  0
  6 29  1  0
  7 30  1  0
  7 31  1  0
 10 32  1  0
 11 33  1  0
 15 34  1  0
 16 35  1  0
 18 36  1  0
 18 37  1  0
 19 38  1  0
 19 39  1  0
 20 40  1  0
 21 41  1  0
M  END
>  <Energy>  (734) 
179.53646968422714

>  <compound_id>  (734) 
17677

>  <target_id>  (734) 
1

>  <reference_id>  (734) 
7

>  <inspiration_ids>  (734) 
[107, 7]

>  <energy_score>  (734) 
52.445246483334756

>  <distance_score>  (734) 
8.35447592509647

>  <path>  (734) 
/opt/xchem-fragalysis-2/maxwin/BulkDock/SCRATCH/511022/C17677-P7/C17677-P7.minimised.mol

>  <scratch_subdir>  (734) 
/opt/xchem-fragalysis-2/maxwin/BulkDock/SCRATCH/511022/C17677-P7

>  <fragmenstein_runtime>  (734) 
6.182726144790649

>  <fragmenstein_outcome>  (734) 
too moved

>  <fragmenstein_mode>  (734) 
expansion

>  <fragmenstein_error>  (734) 


$$$$
C28507-P107
     RDKit          3D

 36 38  0  0  0  0  0  0  0  0999 V2000
  -15.7002  -14.2636   38.2418 O   0  0  0  0  0  0  0  0  0  0  0  0
  -15.3591  -13.7922   37.1543 C   0  0  0  0  0  0  0  0  0  0  0  0
  -15.5302  -12.2556   36.9043 C   0  0  0  0  0  0  0  0  0  0  0  0
  -15.3773  -11.3758   38.1755 C   0  0  0  0  0  0  0  0  0  0  0  0
  -15.7408   -9.8857   37.9180 N   0  0  0  0  0  0  0  0  0  0  0  0
  -15.6336   -8.8961   39.3502 S   0  0  0  0  0  0  0  0  0  0  0  0
  -16.9175   -9.0429   39.9982 O   0  0  0  0  0  0  0  0  0  0  0  0
  -14.3958   -9.2473   40.0095 O   0  0  0  0  0  0  0  0  0  0  0  0
  -15.5012   -7.1981   38.8708 C   0  0  0  0  0  0  0  0  0  0  0  0
  -14.7572   -6.2975   39.6468 C   0  0  0  0  0  0  0  0  0  0  0  0
  -14.6672   -4.9591   39.2580 C   0  0  0  0  0  0  0  0  0  0  0  0
  -15.3150   -4.5747   38.0966 C   0  0  0  0  0  0  0  0  0  0  0  0
  -16.0272   -5.4308   37.3233 N   0  0  0  0  0  0  0  0  0  0  0  0
  -16.1314   -6.7192   37.7431 C   0  0  0  0  0  0  0  0  0  0  0  0
  -14.8143  -14.6475   36.0858 C   0  0  0  0  0  0  0  0  0  0  0  0
  -14.2092  -14.2501   34.9106 C   0  0  0  0  0  0  0  0  0  0  0  0
  -13.6014  -15.2846   34.2623 N   0  0  0  0  0  0  0  0  0  0  0  0
  -14.0067  -16.3749   34.8648 C   0  0  0  0  0  0  0  0  0  0  0  0
  -13.8526  -17.6691   34.4495 N   0  0  0  0  0  0  0  0  0  0  0  0
  -14.3843  -18.5787   35.1994 C   0  0  0  0  0  0  0  0  0  0  0  0
  -15.1525  -18.3363   36.4468 C   0  0  0  0  0  0  0  0  0  0  0  0
  -15.2978  -17.0490   36.7979 C   0  0  0  0  0  0  0  0  0  0  0  0
  -14.7455  -16.0438   36.0085 N   0  0  0  0  0  0  0  0  0  0  0  0
  -16.5290  -12.1133   36.4751 H   0  0  0  0  0  0  0  0  0  0  0  0
  -14.8077  -11.9042   36.1633 H   0  0  0  0  0  0  0  0  0  0  0  0
  -14.3431  -11.4249   38.5293 H   0  0  0  0  0  0  0  0  0  0  0  0
  -16.0416  -11.7480   38.9634 H   0  0  0  0  0  0  0  0  0  0  0  0
  -16.7346   -9.8826   37.6667 H   0  0  0  0  0  0  0  0  0  0  0  0
  -14.2471   -6.6350   40.5474 H   0  0  0  0  0  0  0  0  0  0  0  0
  -14.0961   -4.2436   39.8403 H   0  0  0  0  0  0  0  0  0  0  0  0
  -15.2688   -3.5490   37.7381 H   0  0  0  0  0  0  0  0  0  0  0  0
  -16.7490   -7.3526   37.1150 H   0  0  0  0  0  0  0  0  0  0  0  0
  -14.1104  -13.2408   34.5302 H   0  0  0  0  0  0  0  0  0  0  0  0
  -14.2889  -19.6316   34.8927 H   0  0  0  0  0  0  0  0  0  0  0  0
  -15.5787  -19.1628   36.9952 H   0  0  0  0  0  0  0  0  0  0  0  0
  -15.8626  -16.7399   37.6688 H   0  0  0  0  0  0  0  0  0  0  0  0
  1  2  2  0
  2  3  1  0
  3  4  1  0
  4  5  1  0
  5  6  1  0
  6  7  2  0
  6  8  2  0
  6  9  1  0
  9 10  2  0
 10 11  1  0
 11 12  2  0
 12 13  1  0
 13 14  2  0
  2 15  1  0
 15 16  2  0
 16 17  1  0
 17 18  2  0
 18 19  1  0
 19 20  2  0
 20 21  1  0
 21 22  2  0
 22 23  1  0
 14  9  1  0
 23 15  1  0
 23 18  1  0
  3 24  1  0
  3 25  1  0
  4 26  1  0
  4 27  1  0
  5 28  1  0
 10 29  1  0
 11 30  1  0
 12 31  1  0
 14 32  1  0
 16 33  1  0
 20 34  1  0
 21 35  1  0
 22 36  1  0
M  END
>  <Energy>  (735) 
-27.034489071081587

>  <compound_id>  (735) 
28507

>  <target_id>  (735) 
1

>  <reference_id>  (735) 
107

>  <inspiration_ids>  (735) 
[107, 7]

>  <energy_score>  (735) 
-35.192554315885374

>  <distance_score>  (735) 
8.648386342473643

>  <path>  (735) 
/opt/xchem-fragalysis-2/maxwin/BulkDock/SCRATCH/511022/C28507-P107/C28507-P107.minimised.mol

>  <scratch_subdir>  (735) 
/opt/xchem-fragalysis-2/maxwin/BulkDock/SCRATCH/511022/C28507-P107

>  <fragmenstein_runtime>  (735) 
9.894513845443726

>  <fragmenstein_outcome>  (735) 
too moved

>  <fragmenstein_mode>  (735) 
expansion

>  <fragmenstein_error>  (735) 


$$$$
C28507-P7
     RDKit          3D

 36 38  0  0  0  0  0  0  0  0999 V2000
  -13.9664  -15.7856   35.1481 O   0  0  0  0  0  0  0  0  0  0  0  0
  -15.1455  -15.9872   35.4450 C   0  0  0  0  0  0  0  0  0  0  0  0
  -16.0241  -14.7729   35.8866 C   0  0  0  0  0  0  0  0  0  0  0  0
  -15.6381  -13.4020   35.2263 C   0  0  0  0  0  0  0  0  0  0  0  0
  -15.7545  -12.2112   36.2045 N   0  0  0  0  0  0  0  0  0  0  0  0
  -15.3631  -10.6607   35.4672 S   0  0  0  0  0  0  0  0  0  0  0  0
  -14.1183  -10.8135   34.7509 O   0  0  0  0  0  0  0  0  0  0  0  0
  -16.5918  -10.2585   34.8089 O   0  0  0  0  0  0  0  0  0  0  0  0
  -15.0694   -9.5184   36.7836 C   0  0  0  0  0  0  0  0  0  0  0  0
  -14.1817   -9.7986   37.8160 C   0  0  0  0  0  0  0  0  0  0  0  0
  -13.9878   -8.8433   38.8147 C   0  0  0  0  0  0  0  0  0  0  0  0
  -14.6779   -7.6421   38.7325 C   0  0  0  0  0  0  0  0  0  0  0  0
  -15.5115   -7.3275   37.7172 N   0  0  0  0  0  0  0  0  0  0  0  0
  -15.6929   -8.2777   36.7633 C   0  0  0  0  0  0  0  0  0  0  0  0
  -15.6878  -17.3449   35.3834 C   0  0  0  0  0  0  0  0  0  0  0  0
  -16.9952  -17.7767   35.5072 C   0  0  0  0  0  0  0  0  0  0  0  0
  -17.1566  -19.0492   35.0332 N   0  0  0  0  0  0  0  0  0  0  0  0
  -15.9628  -19.4671   34.6851 C   0  0  0  0  0  0  0  0  0  0  0  0
  -15.6220  -20.6442   34.0878 N   0  0  0  0  0  0  0  0  0  0  0  0
  -14.3561  -20.9135   34.0281 C   0  0  0  0  0  0  0  0  0  0  0  0
  -13.2633  -20.0205   34.5087 C   0  0  0  0  0  0  0  0  0  0  0  0
  -13.6437  -18.8168   34.9654 C   0  0  0  0  0  0  0  0  0  0  0  0
  -15.0012  -18.5153   35.0446 N   0  0  0  0  0  0  0  0  0  0  0  0
  -15.9592  -14.7110   36.9783 H   0  0  0  0  0  0  0  0  0  0  0  0
  -17.0691  -14.9751   35.6552 H   0  0  0  0  0  0  0  0  0  0  0  0
  -16.3222  -13.2148   34.3908 H   0  0  0  0  0  0  0  0  0  0  0  0
  -14.6192  -13.4213   34.8310 H   0  0  0  0  0  0  0  0  0  0  0  0
  -16.7348  -12.1322   36.4952 H   0  0  0  0  0  0  0  0  0  0  0  0
  -13.6438  -10.7441   37.8514 H   0  0  0  0  0  0  0  0  0  0  0  0
  -13.3066   -9.0333   39.6387 H   0  0  0  0  0  0  0  0  0  0  0  0
  -14.5574   -6.8760   39.4935 H   0  0  0  0  0  0  0  0  0  0  0  0
  -16.3685   -7.9885   35.9622 H   0  0  0  0  0  0  0  0  0  0  0  0
  -17.8644  -17.2001   35.8041 H   0  0  0  0  0  0  0  0  0  0  0  0
  -14.0244  -21.8675   33.5911 H   0  0  0  0  0  0  0  0  0  0  0  0
  -12.2448  -20.3421   34.3992 H   0  0  0  0  0  0  0  0  0  0  0  0
  -12.9300  -18.0624   35.2742 H   0  0  0  0  0  0  0  0  0  0  0  0
  1  2  2  0
  2  3  1  0
  3  4  1  0
  4  5  1  0
  5  6  1  0
  6  7  2  0
  6  8  2  0
  6  9  1  0
  9 10  2  0
 10 11  1  0
 11 12  2  0
 12 13  1  0
 13 14  2  0
  2 15  1  0
 15 16  2  0
 16 17  1  0
 17 18  2  0
 18 19  1  0
 19 20  2  0
 20 21  1  0
 21 22  2  0
 22 23  1  0
 14  9  1  0
 23 15  1  0
 23 18  1  0
  3 24  1  0
  3 25  1  0
  4 26  1  0
  4 27  1  0
  5 28  1  0
 10 29  1  0
 11 30  1  0
 12 31  1  0
 14 32  1  0
 16 33  1  0
 20 34  1  0
 21 35  1  0
 22 36  1  0
M  END
>  <Energy>  (736) 
-25.407816264600296

>  <compound_id>  (736) 
28507

>  <target_id>  (736) 
1

>  <reference_id>  (736) 
7

>  <inspiration_ids>  (736) 
[107, 7]

>  <energy_score>  (736) 
-33.565881509405486

>  <distance_score>  (736) 
8.041384863744058

>  <path>  (736) 
/opt/xchem-fragalysis-2/maxwin/BulkDock/SCRATCH/511022/C28507-P7/C28507-P7.minimised.mol

>  <scratch_subdir>  (736) 
/opt/xchem-fragalysis-2/maxwin/BulkDock/SCRATCH/511022/C28507-P7

>  <fragmenstein_runtime>  (736) 
8.226532220840454

>  <fragmenstein_outcome>  (736) 
too moved

>  <fragmenstein_mode>  (736) 
expansion

>  <fragmenstein_error>  (736) 


$$$$
C54467-P107
     RDKit          3D

 33 36  0  0  0  0  0  0  0  0999 V2000
  -11.2814  -14.9452   29.6756 O   0  0  0  0  0  0  0  0  0  0  0  0
  -11.7321  -15.9572   30.1411 C   0  0  0  0  0  0  0  0  0  0  0  0
  -12.4753  -16.2214   31.5503 N   0  0  0  0  0  0  0  0  0  0  0  0
  -12.7187  -15.3533   32.6856 C   0  0  0  0  0  0  0  0  0  0  0  0
  -12.7334  -14.1261   33.1019 N   0  0  0  0  0  0  0  0  0  0  0  0
  -13.8682  -13.9390   33.9246 C   0  0  0  0  0  0  0  0  0  0  0  0
  -14.4026  -15.0805   34.2988 N   0  0  0  0  0  0  0  0  0  0  0  0
  -13.3767  -15.9242   33.9024 N   0  0  0  0  0  0  0  0  0  0  0  0
  -12.9063  -16.7388   34.9872 C   0  0  0  0  0  0  0  0  0  0  0  0
  -13.8108  -16.9660   36.0414 C   0  0  0  0  0  0  0  0  0  0  0  0
  -13.3360  -17.3501   37.2883 C   0  0  0  0  0  0  0  0  0  0  0  0
  -11.9789  -17.5587   37.4475 C   0  0  0  0  0  0  0  0  0  0  0  0
  -11.1645  -17.3950   36.3429 C   0  0  0  0  0  0  0  0  0  0  0  0
  -11.5956  -17.0049   35.1237 N   0  0  0  0  0  0  0  0  0  0  0  0
  -11.4010  -17.4513   29.1314 C   0  0  0  0  0  0  0  0  0  0  0  0
  -12.4243  -18.4002   28.8097 C   0  0  0  0  0  0  0  0  0  0  0  0
  -12.6351  -19.8541   28.9257 C   0  0  0  0  0  0  0  0  0  0  0  0
  -11.7865  -20.8751   29.1461 N   0  0  0  0  0  0  0  0  0  0  0  0
  -11.9921  -22.1353   29.6105 C   0  0  0  0  0  0  0  0  0  0  0  0
  -11.2887  -22.0931   30.7805 C   0  0  0  0  0  0  0  0  0  0  0  0
  -10.4988  -20.9606   30.7773 N   0  0  0  0  0  0  0  0  0  0  0  0
  -10.6520  -20.3029   29.5948 C   0  0  0  0  0  0  0  0  0  0  0  0
  -10.4939  -18.4407   29.3064 N   0  0  0  0  0  0  0  0  0  0  0  0
  -12.6456  -17.1711   31.6588 H   0  0  0  0  0  0  0  0  0  0  0  0
  -14.2559  -12.9668   34.2061 H   0  0  0  0  0  0  0  0  0  0  0  0
  -14.8720  -16.7519   35.9345 H   0  0  0  0  0  0  0  0  0  0  0  0
  -14.0208  -17.4803   38.1205 H   0  0  0  0  0  0  0  0  0  0  0  0
  -11.5642  -17.8716   38.3986 H   0  0  0  0  0  0  0  0  0  0  0  0
  -10.0899  -17.5189   36.4201 H   0  0  0  0  0  0  0  0  0  0  0  0
  -13.0533  -17.6528   28.5872 H   0  0  0  0  0  0  0  0  0  0  0  0
  -13.6445  -20.0834   29.0496 H   0  0  0  0  0  0  0  0  0  0  0  0
  -12.7372  -22.8224   29.2404 H   0  0  0  0  0  0  0  0  0  0  0  0
  -11.2748  -22.7987   31.6028 H   0  0  0  0  0  0  0  0  0  0  0  0
  1  2  2  0
  2  3  1  0
  3  4  1  0
  4  5  2  0
  5  6  1  0
  6  7  2  0
  7  8  1  0
  8  9  1  0
  9 10  2  0
 10 11  1  0
 11 12  2  0
 12 13  1  0
 13 14  2  0
  2 15  1  0
 15 16  1  0
 16 17  2  0
 17 18  1  0
 18 19  1  0
 19 20  2  0
 20 21  1  0
 21 22  2  0
 22 23  1  0
  8  4  1  0
 14  9  1  0
 23 15  2  0
 22 18  1  0
  3 24  1  0
  6 25  1  0
 10 26  1  0
 11 27  1  0
 12 28  1  0
 13 29  1  0
 16 30  1  0
 17 31  1  0
 19 32  1  0
 20 33  1  0
M  END
>  <Energy>  (737) 
471.4874502419442

>  <compound_id>  (737) 
54467

>  <target_id>  (737) 
1

>  <reference_id>  (737) 
107

>  <inspiration_ids>  (737) 
[107, 7]

>  <energy_score>  (737) 
299.280609928841

>  <distance_score>  (737) 
11.0337780399612

>  <path>  (737) 
/opt/xchem-fragalysis-2/maxwin/BulkDock/SCRATCH/511022/C54467-P107/C54467-P107.minimised.mol

>  <scratch_subdir>  (737) 
/opt/xchem-fragalysis-2/maxwin/BulkDock/SCRATCH/511022/C54467-P107

>  <fragmenstein_runtime>  (737) 
11.24019742012024

>  <fragmenstein_outcome>  (737) 
too moved

>  <fragmenstein_mode>  (737) 
expansion

>  <fragmenstein_error>  (737) 


$$$$
C54467-P7
     RDKit          3D

 33 36  0  0  0  0  0  0  0  0999 V2000
  -11.7563  -15.3352   29.1784 O   0  0  0  0  0  0  0  0  0  0  0  0
  -12.1820  -16.2066   29.9119 C   0  0  0  0  0  0  0  0  0  0  0  0
  -12.7331  -16.0709   31.5019 N   0  0  0  0  0  0  0  0  0  0  0  0
  -12.7444  -14.8870   32.4607 C   0  0  0  0  0  0  0  0  0  0  0  0
  -11.8938  -15.0977   33.5041 N   0  0  0  0  0  0  0  0  0  0  0  0
  -12.5948  -15.9541   34.3412 C   0  0  0  0  0  0  0  0  0  0  0  0
  -13.9061  -15.7363   34.3615 N   0  0  0  0  0  0  0  0  0  0  0  0
  -13.8949  -14.5871   33.5949 N   0  0  0  0  0  0  0  0  0  0  0  0
  -14.5000  -13.3618   34.2098 C   0  0  0  0  0  0  0  0  0  0  0  0
  -15.7028  -13.4965   34.8982 C   0  0  0  0  0  0  0  0  0  0  0  0
  -16.2370  -12.3855   35.5842 C   0  0  0  0  0  0  0  0  0  0  0  0
  -15.5622  -11.1692   35.6070 C   0  0  0  0  0  0  0  0  0  0  0  0
  -14.3635  -11.1148   34.9419 C   0  0  0  0  0  0  0  0  0  0  0  0
  -13.8409  -12.1760   34.2789 N   0  0  0  0  0  0  0  0  0  0  0  0
  -12.0477  -18.0011   29.1243 C   0  0  0  0  0  0  0  0  0  0  0  0
  -12.9343  -19.4827   29.1500 C   0  0  0  0  0  0  0  0  0  0  0  0
  -12.6212  -20.8143   29.0694 C   0  0  0  0  0  0  0  0  0  0  0  0
  -11.4625  -21.4348   28.9525 N   0  0  0  0  0  0  0  0  0  0  0  0
  -11.3271  -22.6769   29.5426 C   0  0  0  0  0  0  0  0  0  0  0  0
  -11.2252  -22.3071   30.8673 C   0  0  0  0  0  0  0  0  0  0  0  0
  -10.8271  -20.9765   30.8965 N   0  0  0  0  0  0  0  0  0  0  0  0
  -10.7442  -20.5114   29.6072 C   0  0  0  0  0  0  0  0  0  0  0  0
  -10.9119  -18.7253   29.3041 N   0  0  0  0  0  0  0  0  0  0  0  0
  -12.9342  -16.9612   31.8587 H   0  0  0  0  0  0  0  0  0  0  0  0
  -12.1196  -16.7122   34.9539 H   0  0  0  0  0  0  0  0  0  0  0  0
  -16.2332  -14.4429   34.9132 H   0  0  0  0  0  0  0  0  0  0  0  0
  -17.1837  -12.4880   36.1098 H   0  0  0  0  0  0  0  0  0  0  0  0
  -15.9514  -10.3092   36.1375 H   0  0  0  0  0  0  0  0  0  0  0  0
  -13.7603  -10.2133   34.9239 H   0  0  0  0  0  0  0  0  0  0  0  0
  -13.9668  -19.3063   29.3810 H   0  0  0  0  0  0  0  0  0  0  0  0
  -13.1756  -21.4511   29.7467 H   0  0  0  0  0  0  0  0  0  0  0  0
  -11.5505  -23.6004   29.0304 H   0  0  0  0  0  0  0  0  0  0  0  0
  -11.2512  -22.8807   31.7837 H   0  0  0  0  0  0  0  0  0  0  0  0
  1  2  2  0
  2  3  1  0
  3  4  1  0
  4  5  2  0
  5  6  1  0
  6  7  2  0
  7  8  1  0
  8  9  1  0
  9 10  2  0
 10 11  1  0
 11 12  2  0
 12 13  1  0
 13 14  2  0
  2 15  1  0
 15 16  1  0
 16 17  2  0
 17 18  1  0
 18 19  1  0
 19 20  2  0
 20 21  1  0
 21 22  2  0
 22 23  1  0
  8  4  1  0
 14  9  1  0
 23 15  2  0
 22 18  1  0
  3 24  1  0
  6 25  1  0
 10 26  1  0
 11 27  1  0
 12 28  1  0
 13 29  1  0
 16 30  1  0
 17 31  1  0
 19 32  1  0
 20 33  1  0
M  END
>  <Energy>  (738) 
577.89487811059746

>  <compound_id>  (738) 
54467

>  <target_id>  (738) 
1

>  <reference_id>  (738) 
7

>  <inspiration_ids>  (738) 
[107, 7]

>  <energy_score>  (738) 
405.68803779749055

>  <distance_score>  (738) 
8.909665760372203

>  <path>  (738) 
/opt/xchem-fragalysis-2/maxwin/BulkDock/SCRATCH/511022/C54467-P7/C54467-P7.minimised.mol

>  <scratch_subdir>  (738) 
/opt/xchem-fragalysis-2/maxwin/BulkDock/SCRATCH/511022/C54467-P7

>  <fragmenstein_runtime>  (738) 
11.26238226890564

>  <fragmenstein_outcome>  (738) 
too moved

>  <fragmenstein_mode>  (738) 
expansion

>  <fragmenstein_error>  (738) 


$$$$
C54469-P107
     RDKit          3D

 35 38  0  0  0  0  0  0  0  0999 V2000
  -15.4766  -13.1080   38.5239 O   0  0  0  0  0  0  0  0  0  0  0  0
  -15.3643  -12.6326   37.4310 C   0  0  0  0  0  0  0  0  0  0  0  0
  -15.0679  -13.2482   36.1657 N   0  0  0  0  0  0  0  0  0  0  0  0
  -14.7366  -14.5415   35.8481 C   0  0  0  0  0  0  0  0  0  0  0  0
  -14.1888  -14.7502   34.4699 C   0  0  0  0  0  0  0  0  0  0  0  0
  -13.6763  -15.8299   33.9807 N   0  0  0  0  0  0  0  0  0  0  0  0
  -13.6657  -16.9065   34.7913 C   0  0  0  0  0  0  0  0  0  0  0  0
  -13.3134  -18.1308   34.4936 N   0  0  0  0  0  0  0  0  0  0  0  0
  -13.2607  -18.7790   35.6811 C   0  0  0  0  0  0  0  0  0  0  0  0
  -13.8151  -18.0206   36.6879 C   0  0  0  0  0  0  0  0  0  0  0  0
  -14.1055  -16.8138   36.1028 N   0  0  0  0  0  0  0  0  0  0  0  0
  -14.6538  -15.6369   36.6262 C   0  0  0  0  0  0  0  0  0  0  0  0
  -15.4328  -11.1593   37.2785 C   0  0  0  0  0  0  0  0  0  0  0  0
  -14.7534  -10.1912   38.0701 C   0  0  0  0  0  0  0  0  0  0  0  0
  -14.9304   -8.9337   37.6441 N   0  0  0  0  0  0  0  0  0  0  0  0
  -15.8044   -9.0761   36.6329 N   0  0  0  0  0  0  0  0  0  0  0  0
  -16.1064  -10.3836   36.3428 C   0  0  0  0  0  0  0  0  0  0  0  0
  -17.0167  -10.7263   35.2104 C   0  0  0  0  0  0  0  0  0  0  0  0
  -17.9211   -9.5497   34.8330 C   0  0  0  0  0  0  0  0  0  0  0  0
  -17.1094   -8.2613   34.6896 C   0  0  0  0  0  0  0  0  0  0  0  0
  -16.3964   -7.9133   35.9960 C   0  0  0  0  0  0  0  0  0  0  0  0
  -14.9681  -12.5240   35.4610 H   0  0  0  0  0  0  0  0  0  0  0  0
  -14.2012  -13.8437   33.8446 H   0  0  0  0  0  0  0  0  0  0  0  0
  -12.8215  -19.7618   35.7186 H   0  0  0  0  0  0  0  0  0  0  0  0
  -13.9815  -18.2097   37.7376 H   0  0  0  0  0  0  0  0  0  0  0  0
  -14.9429  -15.6458   37.6694 H   0  0  0  0  0  0  0  0  0  0  0  0
  -14.1065  -10.3773   38.9191 H   0  0  0  0  0  0  0  0  0  0  0  0
  -16.4094  -11.0097   34.3421 H   0  0  0  0  0  0  0  0  0  0  0  0
  -17.6366  -11.5917   35.4704 H   0  0  0  0  0  0  0  0  0  0  0  0
  -18.4414   -9.7719   33.8946 H   0  0  0  0  0  0  0  0  0  0  0  0
  -18.6902   -9.4102   35.6033 H   0  0  0  0  0  0  0  0  0  0  0  0
  -17.7609   -7.4320   34.3929 H   0  0  0  0  0  0  0  0  0  0  0  0
  -16.3723   -8.3890   33.8877 H   0  0  0  0  0  0  0  0  0  0  0  0
  -17.1056   -7.4956   36.7196 H   0  0  0  0  0  0  0  0  0  0  0  0
  -15.6033   -7.1801   35.8179 H   0  0  0  0  0  0  0  0  0  0  0  0
  1  2  2  0
  2  3  1  0
  3  4  1  0
  4  5  1  0
  5  6  2  0
  6  7  1  0
  7  8  2  0
  8  9  1  0
  9 10  2  0
 10 11  1  0
 11 12  1  0
  2 13  1  0
 13 14  1  0
 14 15  2  0
 15 16  1  0
 16 17  1  0
 17 18  1  0
 18 19  1  0
 19 20  1  0
 20 21  1  0
 12  4  2  0
 17 13  2  0
 11  7  1  0
 21 16  1  0
  3 22  1  0
  5 23  1  0
  9 24  1  0
 10 25  1  0
 12 26  1  0
 14 27  1  0
 18 28  1  0
 18 29  1  0
 19 30  1  0
 19 31  1  0
 20 32  1  0
 20 33  1  0
 21 34  1  0
 21 35  1  0
M  END
>  <Energy>  (739) 
42.147564117829262

>  <compound_id>  (739) 
54469

>  <target_id>  (739) 
1

>  <reference_id>  (739) 
107

>  <inspiration_ids>  (739) 
[107, 7]

>  <energy_score>  (739) 
-31.473396034950383

>  <distance_score>  (739) 
10.102368494817641

>  <path>  (739) 
/opt/xchem-fragalysis-2/maxwin/BulkDock/SCRATCH/511022/C54469-P107/C54469-P107.minimised.mol

>  <scratch_subdir>  (739) 
/opt/xchem-fragalysis-2/maxwin/BulkDock/SCRATCH/511022/C54469-P107

>  <fragmenstein_runtime>  (739) 
13.60625958442688

>  <fragmenstein_outcome>  (739) 
too moved

>  <fragmenstein_mode>  (739) 
expansion

>  <fragmenstein_error>  (739) 


$$$$
C54469-P7
     RDKit          3D

 35 38  0  0  0  0  0  0  0  0999 V2000
   -5.3309  -13.4273   35.2407 O   0  0  0  0  0  0  0  0  0  0  0  0
   -5.1469  -13.4090   34.0594 C   0  0  0  0  0  0  0  0  0  0  0  0
   -5.1502  -14.4703   33.0971 N   0  0  0  0  0  0  0  0  0  0  0  0
   -5.4518  -15.7994   33.2265 C   0  0  0  0  0  0  0  0  0  0  0  0
   -6.2042  -16.3525   34.4153 C   0  0  0  0  0  0  0  0  0  0  0  0
   -6.4129  -17.6039   34.7009 N   0  0  0  0  0  0  0  0  0  0  0  0
   -5.8492  -18.5021   33.8467 C   0  0  0  0  0  0  0  0  0  0  0  0
   -5.5946  -19.7803   34.0354 N   0  0  0  0  0  0  0  0  0  0  0  0
   -4.9100  -20.1804   32.9227 C   0  0  0  0  0  0  0  0  0  0  0  0
   -4.7818  -19.1682   32.0082 C   0  0  0  0  0  0  0  0  0  0  0  0
   -5.2849  -18.0748   32.6480 N   0  0  0  0  0  0  0  0  0  0  0  0
   -5.1040  -16.7352   32.3307 C   0  0  0  0  0  0  0  0  0  0  0  0
   -4.9284  -12.0485   33.4971 C   0  0  0  0  0  0  0  0  0  0  0  0
   -5.1300  -10.8538   34.2658 C   0  0  0  0  0  0  0  0  0  0  0  0
   -4.9037   -9.7342   33.5776 N   0  0  0  0  0  0  0  0  0  0  0  0
   -4.4354  -10.1871   32.4099 N   0  0  0  0  0  0  0  0  0  0  0  0
   -4.4993  -11.5553   32.2669 C   0  0  0  0  0  0  0  0  0  0  0  0
   -4.0214  -12.1978   30.9998 C   0  0  0  0  0  0  0  0  0  0  0  0
   -3.8099  -11.1981   29.8594 C   0  0  0  0  0  0  0  0  0  0  0  0
   -3.0827   -9.9530   30.3495 C   0  0  0  0  0  0  0  0  0  0  0  0
   -3.8987   -9.2570   31.4331 C   0  0  0  0  0  0  0  0  0  0  0  0
   -4.8751  -14.1032   32.2050 H   0  0  0  0  0  0  0  0  0  0  0  0
   -6.6250  -15.6021   35.1007 H   0  0  0  0  0  0  0  0  0  0  0  0
   -4.5164  -21.1780   32.8282 H   0  0  0  0  0  0  0  0  0  0  0  0
   -4.3160  -19.1238   31.0365 H   0  0  0  0  0  0  0  0  0  0  0  0
   -4.5733  -16.5228   31.4136 H   0  0  0  0  0  0  0  0  0  0  0  0
   -5.4584  -10.7804   35.2965 H   0  0  0  0  0  0  0  0  0  0  0  0
   -4.7343  -12.9498   30.6501 H   0  0  0  0  0  0  0  0  0  0  0  0
   -3.0759  -12.7134   31.2092 H   0  0  0  0  0  0  0  0  0  0  0  0
   -3.2419  -11.6758   29.0532 H   0  0  0  0  0  0  0  0  0  0  0  0
   -4.7788  -10.9054   29.4360 H   0  0  0  0  0  0  0  0  0  0  0  0
   -2.1016  -10.2390   30.7492 H   0  0  0  0  0  0  0  0  0  0  0  0
   -2.9030   -9.2618   29.5189 H   0  0  0  0  0  0  0  0  0  0  0  0
   -3.2634   -8.5452   31.9664 H   0  0  0  0  0  0  0  0  0  0  0  0
   -4.7555   -8.7280   31.0016 H   0  0  0  0  0  0  0  0  0  0  0  0
  1  2  2  0
  2  3  1  0
  3  4  1  0
  4  5  1  0
  5  6  2  0
  6  7  1  0
  7  8  2  0
  8  9  1  0
  9 10  2  0
 10 11  1  0
 11 12  1  0
  2 13  1  0
 13 14  1  0
 14 15  2  0
 15 16  1  0
 16 17  1  0
 17 18  1  0
 18 19  1  0
 19 20  1  0
 20 21  1  0
 12  4  2  0
 17 13  2  0
 11  7  1  0
 21 16  1  0
  3 22  1  0
  5 23  1  0
  9 24  1  0
 10 25  1  0
 12 26  1  0
 14 27  1  0
 18 28  1  0
 18 29  1  0
 19 30  1  0
 19 31  1  0
 20 32  1  0
 20 33  1  0
 21 34  1  0
 21 35  1  0
M  END
>  <Energy>  (740) 
44.690263109505757

>  <compound_id>  (740) 
54469

>  <target_id>  (740) 
1

>  <reference_id>  (740) 
7

>  <inspiration_ids>  (740) 
[107, 7]

>  <energy_score>  (740) 
-28.93069704327496

>  <distance_score>  (740) 
11.267338871505633

>  <path>  (740) 
/opt/xchem-fragalysis-2/maxwin/BulkDock/SCRATCH/511022/C54469-P7/C54469-P7.minimised.mol

>  <scratch_subdir>  (740) 
/opt/xchem-fragalysis-2/maxwin/BulkDock/SCRATCH/511022/C54469-P7

>  <fragmenstein_runtime>  (740) 
18.40797996520996

>  <fragmenstein_outcome>  (740) 
too moved

>  <fragmenstein_mode>  (740) 
expansion

>  <fragmenstein_error>  (740) 


$$$$
C37809-P107
     RDKit          3D

 39 42  0  0  0  0  0  0  0  0999 V2000
  -18.2348   -8.9608   31.7906 O   0  0  0  0  0  0  0  0  0  0  0  0
  -17.0626   -9.2051   31.6718 C   0  0  0  0  0  0  0  0  0  0  0  0
  -15.8755   -8.4534   32.1189 N   0  0  0  0  0  0  0  0  0  0  0  0
  -15.7670   -7.3004   32.8855 C   0  0  0  0  0  0  0  0  0  0  0  0
  -14.1754   -6.4265   33.6906 C   0  0  0  0  0  0  0  0  0  0  0  0
  -14.1416   -6.1621   35.0278 N   0  0  0  0  0  0  0  0  0  0  0  0
  -15.4238   -6.2007   35.7207 C   0  0  0  0  0  0  0  0  0  0  0  0
  -15.6323   -5.9035   36.9887 N   0  0  0  0  0  0  0  0  0  0  0  0
  -16.9877   -5.9129   37.1666 C   0  0  0  0  0  0  0  0  0  0  0  0
  -17.6460   -6.2519   36.0090 C   0  0  0  0  0  0  0  0  0  0  0  0
  -16.6771   -6.4675   35.0566 N   0  0  0  0  0  0  0  0  0  0  0  0
  -16.8579   -7.0332   33.7347 C   0  0  0  0  0  0  0  0  0  0  0  0
  -16.6920  -10.5786   31.0400 C   0  0  0  0  0  0  0  0  0  0  0  0
  -17.8297  -11.2839   30.2909 C   0  0  0  0  0  0  0  0  0  0  0  0
  -18.8078  -12.0438   31.1850 C   0  0  0  0  0  0  0  0  0  0  0  0
  -18.4724  -12.0029   32.6754 C   0  0  0  0  0  0  0  0  0  0  0  0
  -17.0665  -12.2979   32.9005 N   0  0  0  0  0  0  0  0  0  0  0  0
  -16.6783  -12.7209   34.1468 C   0  0  0  0  0  0  0  0  0  0  0  0
  -17.5251  -12.8343   35.1529 N   0  0  0  0  0  0  0  0  0  0  0  0
  -16.8695  -13.1745   36.3180 C   0  0  0  0  0  0  0  0  0  0  0  0
  -15.5337  -13.4502   36.1802 C   0  0  0  0  0  0  0  0  0  0  0  0
  -15.0612  -13.2104   34.5587 S   0  0  0  0  0  0  0  0  0  0  0  0
  -16.0969  -11.5603   32.0902 C   0  0  0  0  0  0  0  0  0  0  0  0
  -15.0419   -8.9149   31.7747 H   0  0  0  0  0  0  0  0  0  0  0  0
  -13.4432   -5.9962   32.9568 H   0  0  0  0  0  0  0  0  0  0  0  0
  -17.4258   -5.6820   38.1297 H   0  0  0  0  0  0  0  0  0  0  0  0
  -18.6964   -6.3786   35.7893 H   0  0  0  0  0  0  0  0  0  0  0  0
  -17.8541   -7.4254   33.5671 H   0  0  0  0  0  0  0  0  0  0  0  0
  -15.9696  -10.3215   30.2595 H   0  0  0  0  0  0  0  0  0  0  0  0
  -18.3836  -10.5617   29.6782 H   0  0  0  0  0  0  0  0  0  0  0  0
  -17.3909  -11.9971   29.5813 H   0  0  0  0  0  0  0  0  0  0  0  0
  -19.8141  -11.6276   31.0484 H   0  0  0  0  0  0  0  0  0  0  0  0
  -18.8803  -13.0762   30.8285 H   0  0  0  0  0  0  0  0  0  0  0  0
  -18.7190  -11.0237   33.1007 H   0  0  0  0  0  0  0  0  0  0  0  0
  -19.1317  -12.7170   33.1805 H   0  0  0  0  0  0  0  0  0  0  0  0
  -17.4255  -13.2327   37.2448 H   0  0  0  0  0  0  0  0  0  0  0  0
  -14.8317  -13.7607   36.9371 H   0  0  0  0  0  0  0  0  0  0  0  0
  -15.5145  -12.3123   31.5569 H   0  0  0  0  0  0  0  0  0  0  0  0
  -15.4364  -11.0032   32.7599 H   0  0  0  0  0  0  0  0  0  0  0  0
  1  2  2  0
  2  3  1  0
  3  4  1  0
  4  5  1  0
  5  6  2  0
  6  7  1  0
  7  8  2  0
  8  9  1  0
  9 10  2  0
 10 11  1  0
 11 12  1  0
  2 13  1  0
 13 14  1  0
 14 15  1  0
 15 16  1  0
 16 17  1  0
 17 18  1  0
 18 19  2  0
 19 20  1  0
 20 21  2  0
 21 22  1  0
 17 23  1  0
 12  4  2  0
 23 13  1  0
 11  7  1  0
 22 18  1  0
  3 24  1  0
  5 25  1  0
  9 26  1  0
 10 27  1  0
 12 28  1  0
 13 29  1  0
 14 30  1  0
 14 31  1  0
 15 32  1  0
 15 33  1  0
 16 34  1  0
 16 35  1  0
 20 36  1  0
 21 37  1  0
 23 38  1  0
 23 39  1  0
M  END
>  <Energy>  (741) 
106.62927275569075

>  <compound_id>  (741) 
37809

>  <target_id>  (741) 
1

>  <reference_id>  (741) 
107

>  <inspiration_ids>  (741) 
[107, 7]

>  <energy_score>  (741) 
13.121366118300926

>  <distance_score>  (741) 
10.77692409446384

>  <path>  (741) 
/opt/xchem-fragalysis-2/maxwin/BulkDock/SCRATCH/511022/C37809-P107/C37809-P107.minimised.mol

>  <scratch_subdir>  (741) 
/opt/xchem-fragalysis-2/maxwin/BulkDock/SCRATCH/511022/C37809-P107

>  <fragmenstein_runtime>  (741) 
12.56113862991333

>  <fragmenstein_outcome>  (741) 
too moved

>  <fragmenstein_mode>  (741) 
expansion

>  <fragmenstein_error>  (741) 


$$$$
C37809-P7
     RDKit          3D

 39 42  0  0  0  0  0  0  0  0999 V2000
  -11.3485  -14.7180   33.3019 O   0  0  0  0  0  0  0  0  0  0  0  0
  -12.5245  -14.8129   33.4117 C   0  0  0  0  0  0  0  0  0  0  0  0
  -13.4044  -13.1094   33.9807 N   0  0  0  0  0  0  0  0  0  0  0  0
  -12.7151  -11.2601   34.2612 C   0  0  0  0  0  0  0  0  0  0  0  0
  -11.3613   -9.8125   33.6163 C   0  0  0  0  0  0  0  0  0  0  0  0
  -10.5931   -8.3393   33.2443 N   0  0  0  0  0  0  0  0  0  0  0  0
  -11.5409   -7.0555   34.0768 C   0  0  0  0  0  0  0  0  0  0  0  0
  -12.8535   -6.1795   32.7830 N   0  0  0  0  0  0  0  0  0  0  0  0
  -14.6156   -7.0521   32.7834 C   0  0  0  0  0  0  0  0  0  0  0  0
  -14.4933   -8.4310   33.8961 C   0  0  0  0  0  0  0  0  0  0  0  0
  -12.8233   -8.5290   34.8136 N   0  0  0  0  0  0  0  0  0  0  0  0
  -13.0610  -10.1881   35.0795 C   0  0  0  0  0  0  0  0  0  0  0  0
  -13.1003  -16.7166   32.7789 C   0  0  0  0  0  0  0  0  0  0  0  0
  -12.2413  -18.6984   33.2199 C   0  0  0  0  0  0  0  0  0  0  0  0
  -12.1247  -20.3139   31.7162 C   0  0  0  0  0  0  0  0  0  0  0  0
  -12.7041  -19.7047   29.6243 C   0  0  0  0  0  0  0  0  0  0  0  0
  -12.5944  -17.7123   29.1097 N   0  0  0  0  0  0  0  0  0  0  0  0
  -14.0481  -16.8879   28.1295 C   0  0  0  0  0  0  0  0  0  0  0  0
  -15.2200  -16.2821   28.7204 N   0  0  0  0  0  0  0  0  0  0  0  0
  -16.4274  -15.9577   28.0461 C   0  0  0  0  0  0  0  0  0  0  0  0
  -16.4131  -16.2009   26.7170 C   0  0  0  0  0  0  0  0  0  0  0  0
  -15.2193  -17.3465   26.4789 S   0  0  0  0  0  0  0  0  0  0  0  0
  -12.6574  -16.4902   30.7507 C   0  0  0  0  0  0  0  0  0  0  0  0
  -14.3924  -13.2959   34.1335 H   0  0  0  0  0  0  0  0  0  0  0  0
  -10.4102   -9.8593   32.9731 H   0  0  0  0  0  0  0  0  0  0  0  0
  -15.3457   -6.6985   32.0670 H   0  0  0  0  0  0  0  0  0  0  0  0
  -15.1483   -9.2469   34.1672 H   0  0  0  0  0  0  0  0  0  0  0  0
  -13.8893  -10.3074   35.7727 H   0  0  0  0  0  0  0  0  0  0  0  0
  -14.0246  -16.5989   33.3397 H   0  0  0  0  0  0  0  0  0  0  0  0
  -11.2746  -18.6980   33.7709 H   0  0  0  0  0  0  0  0  0  0  0  0
  -12.9001  -19.0820   34.0470 H   0  0  0  0  0  0  0  0  0  0  0  0
  -12.7624  -21.1521   32.0625 H   0  0  0  0  0  0  0  0  0  0  0  0
  -11.0672  -20.6504   31.6992 H   0  0  0  0  0  0  0  0  0  0  0  0
  -12.1969  -20.3891   28.9404 H   0  0  0  0  0  0  0  0  0  0  0  0
  -13.7429  -19.5976   29.4170 H   0  0  0  0  0  0  0  0  0  0  0  0
  -17.2195  -15.4415   28.5715 H   0  0  0  0  0  0  0  0  0  0  0  0
  -17.1601  -15.9718   25.9713 H   0  0  0  0  0  0  0  0  0  0  0  0
  -13.2853  -15.6699   30.4023 H   0  0  0  0  0  0  0  0  0  0  0  0
  -11.7494  -15.8944   30.7650 H   0  0  0  0  0  0  0  0  0  0  0  0
  1  2  2  0
  2  3  1  0
  3  4  1  0
  4  5  1  0
  5  6  2  0
  6  7  1  0
  7  8  2  0
  8  9  1  0
  9 10  2  0
 10 11  1  0
 11 12  1  0
  2 13  1  0
 13 14  1  0
 14 15  1  0
 15 16  1  0
 16 17  1  0
 17 18  1  0
 18 19  2  0
 19 20  1  0
 20 21  2  0
 21 22  1  0
 17 23  1  0
 12  4  2  0
 23 13  1  0
 11  7  1  0
 22 18  1  0
  3 24  1  0
  5 25  1  0
  9 26  1  0
 10 27  1  0
 12 28  1  0
 13 29  1  0
 14 30  1  0
 14 31  1  0
 15 32  1  0
 15 33  1  0
 16 34  1  0
 16 35  1  0
 20 36  1  0
 21 37  1  0
 23 38  1  0
 23 39  1  0
M  END
>  <Energy>  (742) 
2323.8395651301012

>  <compound_id>  (742) 
37809

>  <target_id>  (742) 
1

>  <reference_id>  (742) 
7

>  <inspiration_ids>  (742) 
[107, 7]

>  <energy_score>  (742) 
2230.3316584927034

>  <distance_score>  (742) 
7.825177841410777

>  <path>  (742) 
/opt/xchem-fragalysis-2/maxwin/BulkDock/SCRATCH/511022/C37809-P7/C37809-P7.minimised.mol

>  <scratch_subdir>  (742) 
/opt/xchem-fragalysis-2/maxwin/BulkDock/SCRATCH/511022/C37809-P7

>  <fragmenstein_runtime>  (742) 
17.36449098587036

>  <fragmenstein_outcome>  (742) 
too moved

>  <fragmenstein_mode>  (742) 
expansion

>  <fragmenstein_error>  (742) 


$$$$
C54475-P107
     RDKit          3D

 42 45  0  0  0  0  0  0  0  0999 V2000
  -14.8397  -15.0862   35.0153 O   0  0  0  0  0  0  0  0  0  0  0  0
  -14.9136  -15.4082   36.1654 C   0  0  0  0  0  0  0  0  0  0  0  0
  -15.1406  -14.5978   37.3750 N   0  0  0  0  0  0  0  0  0  0  0  0
  -15.2426  -13.2236   37.5427 C   0  0  0  0  0  0  0  0  0  0  0  0
  -15.3190  -12.2264   36.4055 C   0  0  0  0  0  0  0  0  0  0  0  0
  -15.3514  -10.9266   36.5072 N   0  0  0  0  0  0  0  0  0  0  0  0
  -15.1965  -10.3966   37.7519 C   0  0  0  0  0  0  0  0  0  0  0  0
  -15.0925   -9.1313   38.1239 N   0  0  0  0  0  0  0  0  0  0  0  0
  -14.9602   -9.1442   39.4848 C   0  0  0  0  0  0  0  0  0  0  0  0
  -14.9868  -10.4327   39.9617 C   0  0  0  0  0  0  0  0  0  0  0  0
  -15.1219  -11.2317   38.8527 N   0  0  0  0  0  0  0  0  0  0  0  0
  -15.1740  -12.6219   38.7494 C   0  0  0  0  0  0  0  0  0  0  0  0
  -14.6737  -16.9261   36.5625 C   0  0  0  0  0  0  0  0  0  0  0  0
  -15.8363  -17.5426   37.3369 C   0  0  0  0  0  0  0  0  0  0  0  0
  -16.9184  -18.0335   36.3983 C   0  0  0  0  0  0  0  0  0  0  0  0
  -16.4021  -19.1451   35.5190 C   0  0  0  0  0  0  0  0  0  0  0  0
  -15.2470  -18.7026   34.7292 N   0  0  0  0  0  0  0  0  0  0  0  0
  -14.7632  -19.8512   34.0256 C   0  0  0  0  0  0  0  0  0  0  0  0
  -15.6228  -20.5344   33.1528 C   0  0  0  0  0  0  0  0  0  0  0  0
  -15.2115  -21.7113   32.5366 C   0  0  0  0  0  0  0  0  0  0  0  0
  -13.9301  -22.1792   32.7575 C   0  0  0  0  0  0  0  0  0  0  0  0
  -13.1136  -21.4272   33.5742 C   0  0  0  0  0  0  0  0  0  0  0  0
  -13.4989  -20.2816   34.1968 N   0  0  0  0  0  0  0  0  0  0  0  0
  -14.1838  -17.9216   35.4456 C   0  0  0  0  0  0  0  0  0  0  0  0
  -15.0603  -15.1892   38.1898 H   0  0  0  0  0  0  0  0  0  0  0  0
  -15.3889  -12.6638   35.3964 H   0  0  0  0  0  0  0  0  0  0  0  0
  -14.8544   -8.2264   40.0491 H   0  0  0  0  0  0  0  0  0  0  0  0
  -14.9101  -10.8373   40.9596 H   0  0  0  0  0  0  0  0  0  0  0  0
  -15.0922  -13.1679   39.6781 H   0  0  0  0  0  0  0  0  0  0  0  0
  -13.8236  -16.8491   37.2590 H   0  0  0  0  0  0  0  0  0  0  0  0
  -16.2831  -16.8361   38.0428 H   0  0  0  0  0  0  0  0  0  0  0  0
  -15.4658  -18.3830   37.9385 H   0  0  0  0  0  0  0  0  0  0  0  0
  -17.2777  -17.2077   35.7830 H   0  0  0  0  0  0  0  0  0  0  0  0
  -17.7724  -18.3963   36.9818 H   0  0  0  0  0  0  0  0  0  0  0  0
  -16.1593  -20.0081   36.1490 H   0  0  0  0  0  0  0  0  0  0  0  0
  -17.2382  -19.4378   34.8732 H   0  0  0  0  0  0  0  0  0  0  0  0
  -16.6244  -20.1679   32.9577 H   0  0  0  0  0  0  0  0  0  0  0  0
  -15.8960  -22.2705   31.9073 H   0  0  0  0  0  0  0  0  0  0  0  0
  -13.5868  -23.1075   32.3139 H   0  0  0  0  0  0  0  0  0  0  0  0
  -12.0980  -21.7449   33.7808 H   0  0  0  0  0  0  0  0  0  0  0  0
  -13.5145  -18.6235   35.9615 H   0  0  0  0  0  0  0  0  0  0  0  0
  -13.5810  -17.3806   34.7073 H   0  0  0  0  0  0  0  0  0  0  0  0
  1  2  2  0
  2  3  1  0
  3  4  1  0
  4  5  1  0
  5  6  2  0
  6  7  1  0
  7  8  2  0
  8  9  1  0
  9 10  2  0
 10 11  1  0
 11 12  1  0
  2 13  1  0
 13 14  1  0
 14 15  1  0
 15 16  1  0
 16 17  1  0
 17 18  1  0
 18 19  2  0
 19 20  1  0
 20 21  2  0
 21 22  1  0
 22 23  2  0
 17 24  1  0
 12  4  2  0
 24 13  1  0
 11  7  1  0
 23 18  1  0
  3 25  1  0
  5 26  1  0
  9 27  1  0
 10 28  1  0
 12 29  1  0
 13 30  1  0
 14 31  1  0
 14 32  1  0
 15 33  1  0
 15 34  1  0
 16 35  1  0
 16 36  1  0
 19 37  1  0
 20 38  1  0
 21 39  1  0
 22 40  1  0
 24 41  1  0
 24 42  1  0
M  END
>  <Energy>  (743) 
26.161134091367952

>  <compound_id>  (743) 
54475

>  <target_id>  (743) 
1

>  <reference_id>  (743) 
107

>  <inspiration_ids>  (743) 
[107, 7]

>  <energy_score>  (743) 
-41.13008078787292

>  <distance_score>  (743) 
9.483744885580688

>  <path>  (743) 
/opt/xchem-fragalysis-2/maxwin/BulkDock/SCRATCH/511022/C54475-P107/C54475-P107.minimised.mol

>  <scratch_subdir>  (743) 
/opt/xchem-fragalysis-2/maxwin/BulkDock/SCRATCH/511022/C54475-P107

>  <fragmenstein_runtime>  (743) 
11.230023384094238

>  <fragmenstein_outcome>  (743) 
too moved

>  <fragmenstein_mode>  (743) 
expansion

>  <fragmenstein_error>  (743) 


$$$$
C54475-P7
     RDKit          3D

 42 45  0  0  0  0  0  0  0  0999 V2000
  -15.9797  -14.5364   38.4082 O   0  0  0  0  0  0  0  0  0  0  0  0
  -16.2633  -14.4874   37.2405 C   0  0  0  0  0  0  0  0  0  0  0  0
  -16.1901  -13.3851   36.2935 N   0  0  0  0  0  0  0  0  0  0  0  0
  -15.8595  -12.0453   36.4768 C   0  0  0  0  0  0  0  0  0  0  0  0
  -15.8194  -11.0507   35.3322 C   0  0  0  0  0  0  0  0  0  0  0  0
  -15.5718   -9.7730   35.3947 N   0  0  0  0  0  0  0  0  0  0  0  0
  -15.3107   -9.2642   36.6347 C   0  0  0  0  0  0  0  0  0  0  0  0
  -15.1035   -8.0161   37.0111 N   0  0  0  0  0  0  0  0  0  0  0  0
  -14.9027   -8.0512   38.3655 C   0  0  0  0  0  0  0  0  0  0  0  0
  -14.9837   -9.3381   38.8359 C   0  0  0  0  0  0  0  0  0  0  0  0
  -15.2684  -10.1082   37.7375 N   0  0  0  0  0  0  0  0  0  0  0  0
  -15.5385  -11.4727   37.6537 C   0  0  0  0  0  0  0  0  0  0  0  0
  -16.7284  -15.8625   36.6434 C   0  0  0  0  0  0  0  0  0  0  0  0
  -18.0242  -15.8459   35.8444 C   0  0  0  0  0  0  0  0  0  0  0  0
  -18.5320  -17.2718   35.5590 C   0  0  0  0  0  0  0  0  0  0  0  0
  -17.4865  -18.3727   35.7607 C   0  0  0  0  0  0  0  0  0  0  0  0
  -16.2083  -17.9010   35.2381 N   0  0  0  0  0  0  0  0  0  0  0  0
  -15.2947  -18.8847   34.8482 C   0  0  0  0  0  0  0  0  0  0  0  0
  -15.6896  -20.0441   34.1652 C   0  0  0  0  0  0  0  0  0  0  0  0
  -14.7522  -21.0106   33.8083 C   0  0  0  0  0  0  0  0  0  0  0  0
  -13.4195  -20.7911   34.1083 C   0  0  0  0  0  0  0  0  0  0  0  0
  -13.0936  -19.5999   34.7343 C   0  0  0  0  0  0  0  0  0  0  0  0
  -13.9914  -18.6481   35.0690 N   0  0  0  0  0  0  0  0  0  0  0  0
  -15.6308  -16.7188   35.9567 C   0  0  0  0  0  0  0  0  0  0  0  0
  -16.4327  -13.7261   35.3685 H   0  0  0  0  0  0  0  0  0  0  0  0
  -16.0282  -11.4842   34.3390 H   0  0  0  0  0  0  0  0  0  0  0  0
  -14.7044   -7.1488   38.9288 H   0  0  0  0  0  0  0  0  0  0  0  0
  -14.8796   -9.7592   39.8251 H   0  0  0  0  0  0  0  0  0  0  0  0
  -15.5006  -12.0187   38.5886 H   0  0  0  0  0  0  0  0  0  0  0  0
  -16.9945  -16.4267   37.5546 H   0  0  0  0  0  0  0  0  0  0  0  0
  -17.8961  -15.2916   34.9119 H   0  0  0  0  0  0  0  0  0  0  0  0
  -18.7972  -15.2946   36.3948 H   0  0  0  0  0  0  0  0  0  0  0  0
  -19.3877  -17.4867   36.2113 H   0  0  0  0  0  0  0  0  0  0  0  0
  -18.9255  -17.3088   34.5373 H   0  0  0  0  0  0  0  0  0  0  0  0
  -17.3860  -18.6165   36.8264 H   0  0  0  0  0  0  0  0  0  0  0  0
  -17.8758  -19.2722   35.2767 H   0  0  0  0  0  0  0  0  0  0  0  0
  -16.7235  -20.2262   33.8998 H   0  0  0  0  0  0  0  0  0  0  0  0
  -15.0608  -21.9294   33.3162 H   0  0  0  0  0  0  0  0  0  0  0  0
  -12.6631  -21.5278   33.8645 H   0  0  0  0  0  0  0  0  0  0  0  0
  -12.0717  -19.3422   34.9667 H   0  0  0  0  0  0  0  0  0  0  0  0
  -14.9255  -17.0392   36.7351 H   0  0  0  0  0  0  0  0  0  0  0  0
  -15.0767  -16.1007   35.2402 H   0  0  0  0  0  0  0  0  0  0  0  0
  1  2  2  0
  2  3  1  0
  3  4  1  0
  4  5  1  0
  5  6  2  0
  6  7  1  0
  7  8  2  0
  8  9  1  0
  9 10  2  0
 10 11  1  0
 11 12  1  0
  2 13  1  0
 13 14  1  0
 14 15  1  0
 15 16  1  0
 16 17  1  0
 17 18  1  0
 18 19  2  0
 19 20  1  0
 20 21  2  0
 21 22  1  0
 22 23  2  0
 17 24  1  0
 12  4  2  0
 24 13  1  0
 11  7  1  0
 23 18  1  0
  3 25  1  0
  5 26  1  0
  9 27  1  0
 10 28  1  0
 12 29  1  0
 13 30  1  0
 14 31  1  0
 14 32  1  0
 15 33  1  0
 15 34  1  0
 16 35  1  0
 16 36  1  0
 19 37  1  0
 20 38  1  0
 21 39  1  0
 22 40  1  0
 24 41  1  0
 24 42  1  0
M  END
>  <Energy>  (744) 
25.951347405270855

>  <compound_id>  (744) 
54475

>  <target_id>  (744) 
1

>  <reference_id>  (744) 
7

>  <inspiration_ids>  (744) 
[107, 7]

>  <energy_score>  (744) 
-41.33986747397203

>  <distance_score>  (744) 
9.508263644612486

>  <path>  (744) 
/opt/xchem-fragalysis-2/maxwin/BulkDock/SCRATCH/511022/C54475-P7/C54475-P7.minimised.mol

>  <scratch_subdir>  (744) 
/opt/xchem-fragalysis-2/maxwin/BulkDock/SCRATCH/511022/C54475-P7

>  <fragmenstein_runtime>  (744) 
11.456653356552124

>  <fragmenstein_outcome>  (744) 
too moved

>  <fragmenstein_mode>  (744) 
expansion

>  <fragmenstein_error>  (744) 


$$$$
C17678-P107
     RDKit          3D

 34 37  0  0  0  0  0  0  0  0999 V2000
  -17.2709  -12.5556   36.1835 O   0  0  0  0  0  0  0  0  0  0  0  0
  -16.1383  -12.5815   36.5753 C   0  0  0  0  0  0  0  0  0  0  0  0
  -15.1117  -13.6137   36.4486 N   0  0  0  0  0  0  0  0  0  0  0  0
  -15.1707  -14.8965   35.9214 C   0  0  0  0  0  0  0  0  0  0  0  0
  -16.3961  -15.5123   35.2882 C   0  0  0  0  0  0  0  0  0  0  0  0
  -16.5207  -16.7283   34.8258 N   0  0  0  0  0  0  0  0  0  0  0  0
  -15.4189  -17.5290   34.8922 C   0  0  0  0  0  0  0  0  0  0  0  0
  -15.2303  -18.7453   34.4165 N   0  0  0  0  0  0  0  0  0  0  0  0
  -13.9402  -19.0867   34.7358 C   0  0  0  0  0  0  0  0  0  0  0  0
  -13.3039  -18.0430   35.3586 C   0  0  0  0  0  0  0  0  0  0  0  0
  -14.2417  -17.0459   35.4343 N   0  0  0  0  0  0  0  0  0  0  0  0
  -14.1368  -15.7593   35.9392 C   0  0  0  0  0  0  0  0  0  0  0  0
  -15.6634  -11.3807   37.4150 C   0  0  0  0  0  0  0  0  0  0  0  0
  -14.7072  -11.3637   38.4671 C   0  0  0  0  0  0  0  0  0  0  0  0
  -14.6673  -10.0812   38.9549 C   0  0  0  0  0  0  0  0  0  0  0  0
  -15.5993   -9.3644   38.2524 N   0  0  0  0  0  0  0  0  0  0  0  0
  -15.8967   -7.9759   38.4071 C   0  0  0  0  0  0  0  0  0  0  0  0
  -15.2968   -7.2166   39.4181 C   0  0  0  0  0  0  0  0  0  0  0  0
  -15.5614   -5.8572   39.4629 C   0  0  0  0  0  0  0  0  0  0  0  0
  -16.3623   -5.2219   38.5856 N   0  0  0  0  0  0  0  0  0  0  0  0
  -16.9600   -5.9793   37.6425 C   0  0  0  0  0  0  0  0  0  0  0  0
  -16.7699   -7.3454   37.5177 C   0  0  0  0  0  0  0  0  0  0  0  0
  -16.2006  -10.1384   37.3024 N   0  0  0  0  0  0  0  0  0  0  0  0
  -14.2345  -13.2602   36.8312 H   0  0  0  0  0  0  0  0  0  0  0  0
  -17.2775  -14.8542   35.2258 H   0  0  0  0  0  0  0  0  0  0  0  0
  -13.5298  -20.0545   34.4735 H   0  0  0  0  0  0  0  0  0  0  0  0
  -12.2901  -17.9245   35.7122 H   0  0  0  0  0  0  0  0  0  0  0  0
  -13.1810  -15.5303   36.3529 H   0  0  0  0  0  0  0  0  0  0  0  0
  -14.1320  -12.1906   38.8522 H   0  0  0  0  0  0  0  0  0  0  0  0
  -14.0681   -9.6574   39.7455 H   0  0  0  0  0  0  0  0  0  0  0  0
  -14.6274   -7.6316   40.1612 H   0  0  0  0  0  0  0  0  0  0  0  0
  -15.1133   -5.2225   40.2231 H   0  0  0  0  0  0  0  0  0  0  0  0
  -17.6196   -5.4424   36.9656 H   0  0  0  0  0  0  0  0  0  0  0  0
  -17.2842   -7.8922   36.7323 H   0  0  0  0  0  0  0  0  0  0  0  0
  1  2  2  0
  2  3  1  0
  3  4  1  0
  4  5  1  0
  5  6  2  0
  6  7  1  0
  7  8  2  0
  8  9  1  0
  9 10  2  0
 10 11  1  0
 11 12  1  0
  2 13  1  0
 13 14  1  0
 14 15  2  0
 15 16  1  0
 16 17  1  0
 17 18  2  0
 18 19  1  0
 19 20  2  0
 20 21  1  0
 21 22  2  0
 16 23  1  0
 12  4  2  0
 23 13  2  0
 11  7  1  0
 22 17  1  0
  3 24  1  0
  5 25  1  0
  9 26  1  0
 10 27  1  0
 12 28  1  0
 14 29  1  0
 15 30  1  0
 18 31  1  0
 19 32  1  0
 21 33  1  0
 22 34  1  0
M  END
>  <Energy>  (745) 
94.970018968048194

>  <compound_id>  (745) 
17678

>  <target_id>  (745) 
1

>  <reference_id>  (745) 
107

>  <inspiration_ids>  (745) 
[107, 7]

>  <energy_score>  (745) 
-13.449102659503865

>  <distance_score>  (745) 
9.367290192823722

>  <path>  (745) 
/opt/xchem-fragalysis-2/maxwin/BulkDock/SCRATCH/511022/C17678-P107/C17678-P107.minimised.mol

>  <scratch_subdir>  (745) 
/opt/xchem-fragalysis-2/maxwin/BulkDock/SCRATCH/511022/C17678-P107

>  <fragmenstein_runtime>  (745) 
19.84752583503723

>  <fragmenstein_outcome>  (745) 
too moved

>  <fragmenstein_mode>  (745) 
expansion

>  <fragmenstein_error>  (745) 


$$$$
C17678-P7
     RDKit          3D

 34 37  0  0  0  0  0  0  0  0999 V2000
   -8.4448  -14.8906   32.2315 O   0  0  0  0  0  0  0  0  0  0  0  0
   -9.3527  -14.2368   32.6562 C   0  0  0  0  0  0  0  0  0  0  0  0
  -10.5708  -14.6393   33.3606 N   0  0  0  0  0  0  0  0  0  0  0  0
  -10.9733  -15.8091   33.8150 C   0  0  0  0  0  0  0  0  0  0  0  0
  -10.2248  -16.6963   34.7377 C   0  0  0  0  0  0  0  0  0  0  0  0
  -10.7936  -17.3849   35.6938 N   0  0  0  0  0  0  0  0  0  0  0  0
  -12.1375  -17.5879   35.6624 C   0  0  0  0  0  0  0  0  0  0  0  0
  -12.8993  -18.3980   36.3665 N   0  0  0  0  0  0  0  0  0  0  0  0
  -14.1886  -18.1083   36.0139 C   0  0  0  0  0  0  0  0  0  0  0  0
  -14.2228  -17.0950   35.0912 C   0  0  0  0  0  0  0  0  0  0  0  0
  -12.9101  -16.8113   34.8398 N   0  0  0  0  0  0  0  0  0  0  0  0
  -12.3431  -15.8467   34.0393 C   0  0  0  0  0  0  0  0  0  0  0  0
   -9.4164  -12.3678   32.6780 C   0  0  0  0  0  0  0  0  0  0  0  0
   -8.4611  -11.6089   32.9607 C   0  0  0  0  0  0  0  0  0  0  0  0
   -8.8921  -10.6691   32.0639 C   0  0  0  0  0  0  0  0  0  0  0  0
  -10.0119   -9.4945   32.9991 N   0  0  0  0  0  0  0  0  0  0  0  0
   -9.7124   -7.6797   33.2290 C   0  0  0  0  0  0  0  0  0  0  0  0
   -8.4536   -7.0437   33.4339 C   0  0  0  0  0  0  0  0  0  0  0  0
   -8.0889   -6.2500   34.7045 C   0  0  0  0  0  0  0  0  0  0  0  0
   -8.9895   -5.6218   35.6432 N   0  0  0  0  0  0  0  0  0  0  0  0
  -10.3584   -5.7432   35.3532 C   0  0  0  0  0  0  0  0  0  0  0  0
  -10.6170   -6.7921   34.3069 C   0  0  0  0  0  0  0  0  0  0  0  0
  -10.0230  -10.9703   31.9441 N   0  0  0  0  0  0  0  0  0  0  0  0
  -11.1076  -13.8958   33.4810 H   0  0  0  0  0  0  0  0  0  0  0  0
   -9.1252  -16.6454   34.6914 H   0  0  0  0  0  0  0  0  0  0  0  0
  -15.0282  -18.6118   36.4737 H   0  0  0  0  0  0  0  0  0  0  0  0
  -15.0376  -16.5568   34.6308 H   0  0  0  0  0  0  0  0  0  0  0  0
  -13.0430  -15.2103   33.5083 H   0  0  0  0  0  0  0  0  0  0  0  0
   -8.4108  -11.5475   34.0752 H   0  0  0  0  0  0  0  0  0  0  0  0
   -8.6990  -10.4640   30.9385 H   0  0  0  0  0  0  0  0  0  0  0  0
   -7.5826   -7.1192   32.8000 H   0  0  0  0  0  0  0  0  0  0  0  0
   -7.0450   -5.9716   34.8798 H   0  0  0  0  0  0  0  0  0  0  0  0
  -11.0704   -5.2081   35.9545 H   0  0  0  0  0  0  0  0  0  0  0  0
  -11.4359   -7.3294   34.7381 H   0  0  0  0  0  0  0  0  0  0  0  0
  1  2  2  0
  2  3  1  0
  3  4  1  0
  4  5  1  0
  5  6  2  0
  6  7  1  0
  7  8  2  0
  8  9  1  0
  9 10  2  0
 10 11  1  0
 11 12  1  0
  2 13  1  0
 13 14  1  0
 14 15  2  0
 15 16  1  0
 16 17  1  0
 17 18  2  0
 18 19  1  0
 19 20  2  0
 20 21  1  0
 21 22  2  0
 16 23  1  0
 12  4  2  0
 23 13  2  0
 11  7  1  0
 22 17  1  0
  3 24  1  0
  5 25  1  0
  9 26  1  0
 10 27  1  0
 12 28  1  0
 14 29  1  0
 15 30  1  0
 18 31  1  0
 19 32  1  0
 21 33  1  0
 22 34  1  0
M  END
>  <Energy>  (746) 
786.04718047559072

>  <compound_id>  (746) 
17678

>  <target_id>  (746) 
1

>  <reference_id>  (746) 
7

>  <inspiration_ids>  (746) 
[107, 7]

>  <energy_score>  (746) 
677.6280588480236

>  <distance_score>  (746) 
9.33981667361112

>  <path>  (746) 
/opt/xchem-fragalysis-2/maxwin/BulkDock/SCRATCH/511022/C17678-P7/C17678-P7.minimised.mol

>  <scratch_subdir>  (746) 
/opt/xchem-fragalysis-2/maxwin/BulkDock/SCRATCH/511022/C17678-P7

>  <fragmenstein_runtime>  (746) 
9.60490107536316

>  <fragmenstein_outcome>  (746) 
too moved

>  <fragmenstein_mode>  (746) 
expansion

>  <fragmenstein_error>  (746) 


$$$$
C28509-P107
     RDKit          3D

 33 36  0  0  0  0  0  0  0  0999 V2000
  -17.1648  -13.7308   36.7176 O   0  0  0  0  0  0  0  0  0  0  0  0
  -15.9748  -13.6249   36.6220 C   0  0  0  0  0  0  0  0  0  0  0  0
  -15.0884  -12.5210   36.9722 N   0  0  0  0  0  0  0  0  0  0  0  0
  -15.3629  -11.2495   37.4283 C   0  0  0  0  0  0  0  0  0  0  0  0
  -14.2076  -10.3771   37.8853 C   0  0  0  0  0  0  0  0  0  0  0  0
  -14.2513   -9.1555   38.3279 N   0  0  0  0  0  0  0  0  0  0  0  0
  -15.4834   -8.5801   38.3605 C   0  0  0  0  0  0  0  0  0  0  0  0
  -15.7987   -7.3324   38.6413 N   0  0  0  0  0  0  0  0  0  0  0  0
  -17.1544   -7.2463   38.4820 C   0  0  0  0  0  0  0  0  0  0  0  0
  -17.6777   -8.4494   38.0690 C   0  0  0  0  0  0  0  0  0  0  0  0
  -16.6067   -9.2996   37.9637 N   0  0  0  0  0  0  0  0  0  0  0  0
  -16.5466  -10.6225   37.5168 C   0  0  0  0  0  0  0  0  0  0  0  0
  -15.2163  -14.7918   36.0361 C   0  0  0  0  0  0  0  0  0  0  0  0
  -14.2768  -14.7180   35.0302 C   0  0  0  0  0  0  0  0  0  0  0  0
  -13.8345  -15.9680   34.7222 O   0  0  0  0  0  0  0  0  0  0  0  0
  -14.6038  -16.8109   35.4847 C   0  0  0  0  0  0  0  0  0  0  0  0
  -14.4962  -18.2245   35.0947 C   0  0  0  0  0  0  0  0  0  0  0  0
  -15.6323  -18.9806   34.7699 C   0  0  0  0  0  0  0  0  0  0  0  0
  -15.5119  -20.2447   34.1731 C   0  0  0  0  0  0  0  0  0  0  0  0
  -14.2452  -20.7520   33.9555 C   0  0  0  0  0  0  0  0  0  0  0  0
  -13.1244  -20.0776   34.2973 N   0  0  0  0  0  0  0  0  0  0  0  0
  -13.2697  -18.8349   34.8425 C   0  0  0  0  0  0  0  0  0  0  0  0
  -15.4479  -16.1619   36.2817 N   0  0  0  0  0  0  0  0  0  0  0  0
  -14.1194  -12.8127   36.8319 H   0  0  0  0  0  0  0  0  0  0  0  0
  -13.2139  -10.8393   37.8431 H   0  0  0  0  0  0  0  0  0  0  0  0
  -17.6846   -6.3210   38.6695 H   0  0  0  0  0  0  0  0  0  0  0  0
  -18.6856   -8.7603   37.8350 H   0  0  0  0  0  0  0  0  0  0  0  0
  -17.4823  -11.0850   37.2273 H   0  0  0  0  0  0  0  0  0  0  0  0
  -13.8970  -13.9078   34.4294 H   0  0  0  0  0  0  0  0  0  0  0  0
  -16.6245  -18.5680   34.9465 H   0  0  0  0  0  0  0  0  0  0  0  0
  -16.3891  -20.8263   33.9084 H   0  0  0  0  0  0  0  0  0  0  0  0
  -14.0901  -21.7375   33.5223 H   0  0  0  0  0  0  0  0  0  0  0  0
  -12.3291  -18.3188   35.0266 H   0  0  0  0  0  0  0  0  0  0  0  0
  1  2  2  0
  2  3  1  0
  3  4  1  0
  4  5  1  0
  5  6  2  0
  6  7  1  0
  7  8  2  0
  8  9  1  0
  9 10  2  0
 10 11  1  0
 11 12  1  0
  2 13  1  0
 13 14  2  0
 14 15  1  0
 15 16  1  0
 16 17  1  0
 17 18  2  0
 18 19  1  0
 19 20  2  0
 20 21  1  0
 21 22  2  0
 16 23  2  0
 12  4  2  0
 23 13  1  0
 11  7  1  0
 22 17  1  0
  3 24  1  0
  5 25  1  0
  9 26  1  0
 10 27  1  0
 12 28  1  0
 14 29  1  0
 18 30  1  0
 19 31  1  0
 20 32  1  0
 22 33  1  0
M  END
>  <Energy>  (747) 
95.232621370755069

>  <compound_id>  (747) 
28509

>  <target_id>  (747) 
1

>  <reference_id>  (747) 
107

>  <inspiration_ids>  (747) 
[107, 7]

>  <energy_score>  (747) 
-37.44083057702328

>  <distance_score>  (747) 
8.194355985244217

>  <path>  (747) 
/opt/xchem-fragalysis-2/maxwin/BulkDock/SCRATCH/511022/C28509-P107/C28509-P107.minimised.mol

>  <scratch_subdir>  (747) 
/opt/xchem-fragalysis-2/maxwin/BulkDock/SCRATCH/511022/C28509-P107

>  <fragmenstein_runtime>  (747) 
10.012107849121094

>  <fragmenstein_outcome>  (747) 
too moved

>  <fragmenstein_mode>  (747) 
expansion

>  <fragmenstein_error>  (747) 


$$$$
C28509-P7
     RDKit          3D

 33 36  0  0  0  0  0  0  0  0999 V2000
  -14.3975   -9.8683   40.5959 O   0  0  0  0  0  0  0  0  0  0  0  0
  -14.8283   -9.7780   39.4839 C   0  0  0  0  0  0  0  0  0  0  0  0
  -15.1122   -8.6193   38.6761 N   0  0  0  0  0  0  0  0  0  0  0  0
  -14.8908   -7.2901   38.9050 C   0  0  0  0  0  0  0  0  0  0  0  0
  -14.1969   -6.7511   40.1300 C   0  0  0  0  0  0  0  0  0  0  0  0
  -13.8863   -5.5075   40.3644 N   0  0  0  0  0  0  0  0  0  0  0  0
  -14.2346   -4.6056   39.4052 C   0  0  0  0  0  0  0  0  0  0  0  0
  -14.0031   -3.3096   39.3514 N   0  0  0  0  0  0  0  0  0  0  0  0
  -14.5413   -2.8759   38.1697 C   0  0  0  0  0  0  0  0  0  0  0  0
  -15.0996   -3.9207   37.4783 C   0  0  0  0  0  0  0  0  0  0  0  0
  -14.9021   -5.0206   38.2597 N   0  0  0  0  0  0  0  0  0  0  0  0
  -15.2266   -6.3447   38.0122 C   0  0  0  0  0  0  0  0  0  0  0  0
  -15.1457  -10.9853   38.7031 C   0  0  0  0  0  0  0  0  0  0  0  0
  -15.2012  -12.2982   39.1211 C   0  0  0  0  0  0  0  0  0  0  0  0
  -15.5676  -13.0799   38.0587 O   0  0  0  0  0  0  0  0  0  0  0  0
  -15.6705  -12.1902   37.0256 C   0  0  0  0  0  0  0  0  0  0  0  0
  -15.9743  -12.7250   35.7235 C   0  0  0  0  0  0  0  0  0  0  0  0
  -15.2802  -12.2479   34.6120 C   0  0  0  0  0  0  0  0  0  0  0  0
  -15.8101  -12.4521   33.3566 C   0  0  0  0  0  0  0  0  0  0  0  0
  -17.0049  -13.1246   33.2635 C   0  0  0  0  0  0  0  0  0  0  0  0
  -17.6233  -13.7343   34.3024 N   0  0  0  0  0  0  0  0  0  0  0  0
  -17.0838  -13.5300   35.5191 C   0  0  0  0  0  0  0  0  0  0  0  0
  -15.4473  -10.9321   37.3526 N   0  0  0  0  0  0  0  0  0  0  0  0
  -15.3932   -8.9249   37.7434 H   0  0  0  0  0  0  0  0  0  0  0  0
  -13.9201   -7.4950   40.8928 H   0  0  0  0  0  0  0  0  0  0  0  0
  -14.4934   -1.8353   37.8753 H   0  0  0  0  0  0  0  0  0  0  0  0
  -15.5898   -3.9810   36.5231 H   0  0  0  0  0  0  0  0  0  0  0  0
  -15.7205   -6.5576   37.0727 H   0  0  0  0  0  0  0  0  0  0  0  0
  -15.0307  -12.8010   40.0627 H   0  0  0  0  0  0  0  0  0  0  0  0
  -14.3991  -11.6208   34.7266 H   0  0  0  0  0  0  0  0  0  0  0  0
  -15.3491  -12.0401   32.4724 H   0  0  0  0  0  0  0  0  0  0  0  0
  -17.5102  -13.1843   32.3035 H   0  0  0  0  0  0  0  0  0  0  0  0
  -17.6498  -13.9467   36.3475 H   0  0  0  0  0  0  0  0  0  0  0  0
  1  2  2  0
  2  3  1  0
  3  4  1  0
  4  5  1  0
  5  6  2  0
  6  7  1  0
  7  8  2  0
  8  9  1  0
  9 10  2  0
 10 11  1  0
 11 12  1  0
  2 13  1  0
 13 14  2  0
 14 15  1  0
 15 16  1  0
 16 17  1  0
 17 18  2  0
 18 19  1  0
 19 20  2  0
 20 21  1  0
 21 22  2  0
 16 23  2  0
 12  4  2  0
 23 13  1  0
 11  7  1  0
 22 17  1  0
  3 24  1  0
  5 25  1  0
  9 26  1  0
 10 27  1  0
 12 28  1  0
 14 29  1  0
 18 30  1  0
 19 31  1  0
 20 32  1  0
 22 33  1  0
M  END
>  <Energy>  (748) 
77.364356869016603

>  <compound_id>  (748) 
28509

>  <target_id>  (748) 
1

>  <reference_id>  (748) 
7

>  <inspiration_ids>  (748) 
[107, 7]

>  <energy_score>  (748) 
-55.309095078763136

>  <distance_score>  (748) 
10.071156446975179

>  <path>  (748) 
/opt/xchem-fragalysis-2/maxwin/BulkDock/SCRATCH/511022/C28509-P7/C28509-P7.minimised.mol

>  <scratch_subdir>  (748) 
/opt/xchem-fragalysis-2/maxwin/BulkDock/SCRATCH/511022/C28509-P7

>  <fragmenstein_runtime>  (748) 
16.65089440345764

>  <fragmenstein_outcome>  (748) 
too moved

>  <fragmenstein_mode>  (748) 
expansion

>  <fragmenstein_error>  (748) 


$$$$
C17679-P107
     RDKit          3D

 34 37  0  0  0  0  0  0  0  0999 V2000
  -11.0020  -10.5049   35.7131 O   0  0  0  0  0  0  0  0  0  0  0  0
  -12.0227   -9.8874   35.8420 C   0  0  0  0  0  0  0  0  0  0  0  0
  -13.6248  -10.4413   36.2293 N   0  0  0  0  0  0  0  0  0  0  0  0
  -14.1164  -11.7237   36.3741 C   0  0  0  0  0  0  0  0  0  0  0  0
  -13.9638  -12.5712   35.0904 C   0  0  0  0  0  0  0  0  0  0  0  0
  -14.2147  -13.8243   34.8643 N   0  0  0  0  0  0  0  0  0  0  0  0
  -14.8141  -14.4598   35.8956 C   0  0  0  0  0  0  0  0  0  0  0  0
  -15.0650  -15.7453   36.0462 N   0  0  0  0  0  0  0  0  0  0  0  0
  -15.7770  -15.8456   37.2062 C   0  0  0  0  0  0  0  0  0  0  0  0
  -15.9537  -14.6093   37.7866 C   0  0  0  0  0  0  0  0  0  0  0  0
  -15.2970  -13.7119   36.9768 N   0  0  0  0  0  0  0  0  0  0  0  0
  -15.0361  -12.3241   37.1611 C   0  0  0  0  0  0  0  0  0  0  0  0
  -12.1814   -7.8549   35.4552 C   0  0  0  0  0  0  0  0  0  0  0  0
  -11.6936   -6.5121   34.9792 C   0  0  0  0  0  0  0  0  0  0  0  0
  -12.5459   -5.4672   35.2026 N   0  0  0  0  0  0  0  0  0  0  0  0
  -13.7751   -5.8320   35.5394 N   0  0  0  0  0  0  0  0  0  0  0  0
  -13.9132   -7.1328   35.3849 C   0  0  0  0  0  0  0  0  0  0  0  0
  -15.3106   -7.6638   35.6655 C   0  0  0  0  0  0  0  0  0  0  0  0
  -15.8551   -7.6365   36.9582 C   0  0  0  0  0  0  0  0  0  0  0  0
  -17.1378   -8.1209   37.1646 C   0  0  0  0  0  0  0  0  0  0  0  0
  -17.9141   -8.6188   36.1859 N   0  0  0  0  0  0  0  0  0  0  0  0
  -17.4096   -8.5822   34.9372 C   0  0  0  0  0  0  0  0  0  0  0  0
  -16.1451   -8.1030   34.6329 C   0  0  0  0  0  0  0  0  0  0  0  0
  -14.2460   -9.6596   36.3444 H   0  0  0  0  0  0  0  0  0  0  0  0
  -13.6194  -11.9857   34.2394 H   0  0  0  0  0  0  0  0  0  0  0  0
  -16.1321  -16.8028   37.5656 H   0  0  0  0  0  0  0  0  0  0  0  0
  -16.4480  -14.3002   38.6952 H   0  0  0  0  0  0  0  0  0  0  0  0
  -15.4646  -11.8572   38.0351 H   0  0  0  0  0  0  0  0  0  0  0  0
  -10.9333   -6.3267   34.2592 H   0  0  0  0  0  0  0  0  0  0  0  0
  -12.3350   -4.4768   35.1259 H   0  0  0  0  0  0  0  0  0  0  0  0
  -15.3270   -7.2251   37.8095 H   0  0  0  0  0  0  0  0  0  0  0  0
  -17.5884   -8.1125   38.1534 H   0  0  0  0  0  0  0  0  0  0  0  0
  -18.0676   -8.9556   34.1565 H   0  0  0  0  0  0  0  0  0  0  0  0
  -15.8354   -8.0929   33.5965 H   0  0  0  0  0  0  0  0  0  0  0  0
  1  2  2  0
  2  3  1  0
  3  4  1  0
  4  5  1  0
  5  6  2  0
  6  7  1  0
  7  8  2  0
  8  9  1  0
  9 10  2  0
 10 11  1  0
 11 12  1  0
  2 13  1  0
 13 14  2  0
 14 15  1  0
 15 16  1  0
 16 17  2  0
 17 18  1  0
 18 19  2  0
 19 20  1  0
 20 21  2  0
 21 22  1  0
 22 23  2  0
 12  4  2  0
 17 13  1  0
 23 18  1  0
 11  7  1  0
  3 24  1  0
  5 25  1  0
  9 26  1  0
 10 27  1  0
 12 28  1  0
 14 29  1  0
 15 30  1  0
 19 31  1  0
 20 32  1  0
 22 33  1  0
 23 34  1  0
M  END
>  <Energy>  (749) 
296.60703805385253

>  <compound_id>  (749) 
17679

>  <target_id>  (749) 
1

>  <reference_id>  (749) 
107

>  <inspiration_ids>  (749) 
[107, 7]

>  <energy_score>  (749) 
211.3843073449773

>  <distance_score>  (749) 
10.675452568998839

>  <path>  (749) 
/opt/xchem-fragalysis-2/maxwin/BulkDock/SCRATCH/511022/C17679-P107/C17679-P107.minimised.mol

>  <scratch_subdir>  (749) 
/opt/xchem-fragalysis-2/maxwin/BulkDock/SCRATCH/511022/C17679-P107

>  <fragmenstein_runtime>  (749) 
10.71690058708191

>  <fragmenstein_outcome>  (749) 
too moved

>  <fragmenstein_mode>  (749) 
expansion

>  <fragmenstein_error>  (749) 


$$$$
C17679-P7
     RDKit          3D

 34 37  0  0  0  0  0  0  0  0999 V2000
  -17.3496  -15.1295   35.6763 O   0  0  0  0  0  0  0  0  0  0  0  0
  -16.1944  -14.8185   35.6216 C   0  0  0  0  0  0  0  0  0  0  0  0
  -14.9976  -15.6358   35.5183 N   0  0  0  0  0  0  0  0  0  0  0  0
  -14.8416  -16.9946   35.3623 C   0  0  0  0  0  0  0  0  0  0  0  0
  -13.4379  -17.5364   35.1918 C   0  0  0  0  0  0  0  0  0  0  0  0
  -13.1016  -18.7459   34.8675 N   0  0  0  0  0  0  0  0  0  0  0  0
  -14.1228  -19.6008   34.5999 C   0  0  0  0  0  0  0  0  0  0  0  0
  -14.0761  -20.7792   34.0181 N   0  0  0  0  0  0  0  0  0  0  0  0
  -15.3674  -21.2222   33.9374 C   0  0  0  0  0  0  0  0  0  0  0  0
  -16.2327  -20.2771   34.4389 C   0  0  0  0  0  0  0  0  0  0  0  0
  -15.4413  -19.2235   34.8231 N   0  0  0  0  0  0  0  0  0  0  0  0
  -15.7921  -17.9385   35.2386 C   0  0  0  0  0  0  0  0  0  0  0  0
  -15.8641  -13.3633   35.5819 C   0  0  0  0  0  0  0  0  0  0  0  0
  -15.3120  -12.6765   34.5112 C   0  0  0  0  0  0  0  0  0  0  0  0
  -15.1382  -11.3792   34.8964 N   0  0  0  0  0  0  0  0  0  0  0  0
  -15.4516  -11.1738   36.1820 N   0  0  0  0  0  0  0  0  0  0  0  0
  -15.9901  -12.3404   36.5936 C   0  0  0  0  0  0  0  0  0  0  0  0
  -16.4940  -12.4731   37.9613 C   0  0  0  0  0  0  0  0  0  0  0  0
  -15.8294  -11.8335   39.0120 C   0  0  0  0  0  0  0  0  0  0  0  0
  -16.3152  -11.9919   40.2980 C   0  0  0  0  0  0  0  0  0  0  0  0
  -17.4001  -12.7340   40.6017 N   0  0  0  0  0  0  0  0  0  0  0  0
  -18.0414  -13.3222   39.5700 C   0  0  0  0  0  0  0  0  0  0  0  0
  -17.6348  -13.2212   38.2496 C   0  0  0  0  0  0  0  0  0  0  0  0
  -14.1779  -15.0350   35.5802 H   0  0  0  0  0  0  0  0  0  0  0  0
  -12.6305  -16.8095   35.3744 H   0  0  0  0  0  0  0  0  0  0  0  0
  -15.5944  -22.1969   33.5200 H   0  0  0  0  0  0  0  0  0  0  0  0
  -17.3085  -20.2582   34.5298 H   0  0  0  0  0  0  0  0  0  0  0  0
  -16.8511  -17.7326   35.3337 H   0  0  0  0  0  0  0  0  0  0  0  0
  -15.0575  -12.9889   33.5085 H   0  0  0  0  0  0  0  0  0  0  0  0
  -14.7888  -10.6009   34.3418 H   0  0  0  0  0  0  0  0  0  0  0  0
  -14.9533  -11.2182   38.8335 H   0  0  0  0  0  0  0  0  0  0  0  0
  -15.8305  -11.5108   41.1427 H   0  0  0  0  0  0  0  0  0  0  0  0
  -18.9254  -13.8937   39.8391 H   0  0  0  0  0  0  0  0  0  0  0  0
  -18.2208  -13.7033   37.4753 H   0  0  0  0  0  0  0  0  0  0  0  0
  1  2  2  0
  2  3  1  0
  3  4  1  0
  4  5  1  0
  5  6  2  0
  6  7  1  0
  7  8  2  0
  8  9  1  0
  9 10  2  0
 10 11  1  0
 11 12  1  0
  2 13  1  0
 13 14  2  0
 14 15  1  0
 15 16  1  0
 16 17  2  0
 17 18  1  0
 18 19  2  0
 19 20  1  0
 20 21  2  0
 21 22  1  0
 22 23  2  0
 12  4  2  0
 17 13  1  0
 23 18  1  0
 11  7  1  0
  3 24  1  0
  5 25  1  0
  9 26  1  0
 10 27  1  0
 12 28  1  0
 14 29  1  0
 15 30  1  0
 19 31  1  0
 20 32  1  0
 22 33  1  0
 23 34  1  0
M  END
>  <Energy>  (750) 
48.871951583337378

>  <compound_id>  (750) 
17679

>  <target_id>  (750) 
1

>  <reference_id>  (750) 
7

>  <inspiration_ids>  (750) 
[107, 7]

>  <energy_score>  (750) 
-36.350779125533904

>  <distance_score>  (750) 
10.000458374071933

>  <path>  (750) 
/opt/xchem-fragalysis-2/maxwin/BulkDock/SCRATCH/511022/C17679-P7/C17679-P7.minimised.mol

>  <scratch_subdir>  (750) 
/opt/xchem-fragalysis-2/maxwin/BulkDock/SCRATCH/511022/C17679-P7

>  <fragmenstein_runtime>  (750) 
20.044576406478882

>  <fragmenstein_outcome>  (750) 
too moved

>  <fragmenstein_mode>  (750) 
expansion

>  <fragmenstein_error>  (750) 


$$$$
C17680-P107
     RDKit          3D

 34 37  0  0  0  0  0  0  0  0999 V2000
  -14.2703  -12.0098   35.0092 O   0  0  0  0  0  0  0  0  0  0  0  0
  -14.6578  -12.4407   36.0394 C   0  0  0  0  0  0  0  0  0  0  0  0
  -14.8741  -13.9754   36.5156 N   0  0  0  0  0  0  0  0  0  0  0  0
  -14.5525  -15.2503   35.8253 C   0  0  0  0  0  0  0  0  0  0  0  0
  -13.7498  -15.3519   34.5068 C   0  0  0  0  0  0  0  0  0  0  0  0
  -13.2088  -16.3985   33.9500 N   0  0  0  0  0  0  0  0  0  0  0  0
  -13.4259  -17.6050   34.5245 C   0  0  0  0  0  0  0  0  0  0  0  0
  -13.0204  -18.8051   34.1735 N   0  0  0  0  0  0  0  0  0  0  0  0
  -13.9300  -19.6692   34.6713 C   0  0  0  0  0  0  0  0  0  0  0  0
  -14.7809  -19.0030   35.5229 C   0  0  0  0  0  0  0  0  0  0  0  0
  -14.3884  -17.6859   35.4978 N   0  0  0  0  0  0  0  0  0  0  0  0
  -14.8656  -16.5370   36.1862 C   0  0  0  0  0  0  0  0  0  0  0  0
  -15.0658  -11.1869   37.0655 C   0  0  0  0  0  0  0  0  0  0  0  0
  -16.1637  -10.4037   36.6771 N   0  0  0  0  0  0  0  0  0  0  0  0
  -16.3724   -9.2116   37.2987 N   0  0  0  0  0  0  0  0  0  0  0  0
  -15.3135   -9.0771   38.0733 C   0  0  0  0  0  0  0  0  0  0  0  0
  -14.4471  -10.2174   37.9798 C   0  0  0  0  0  0  0  0  0  0  0  0
  -13.3424  -10.2948   38.9292 C   0  0  0  0  0  0  0  0  0  0  0  0
  -13.6291  -10.1139   40.2939 C   0  0  0  0  0  0  0  0  0  0  0  0
  -12.6197  -10.2599   41.2310 C   0  0  0  0  0  0  0  0  0  0  0  0
  -11.3582  -10.5914   40.9120 N   0  0  0  0  0  0  0  0  0  0  0  0
  -11.1024  -10.7682   39.5982 C   0  0  0  0  0  0  0  0  0  0  0  0
  -12.0446  -10.6200   38.5895 C   0  0  0  0  0  0  0  0  0  0  0  0
  -15.2975  -13.9906   37.4331 H   0  0  0  0  0  0  0  0  0  0  0  0
  -13.6449  -14.3858   33.9939 H   0  0  0  0  0  0  0  0  0  0  0  0
  -13.9182  -20.7150   34.3908 H   0  0  0  0  0  0  0  0  0  0  0  0
  -15.6249  -19.3271   36.1137 H   0  0  0  0  0  0  0  0  0  0  0  0
  -15.5020  -16.7434   37.0369 H   0  0  0  0  0  0  0  0  0  0  0  0
  -16.7941  -10.6476   35.9217 H   0  0  0  0  0  0  0  0  0  0  0  0
  -15.2170   -8.1957   38.6958 H   0  0  0  0  0  0  0  0  0  0  0  0
  -14.6325   -9.8849   40.6398 H   0  0  0  0  0  0  0  0  0  0  0  0
  -12.8124  -10.1233   42.2908 H   0  0  0  0  0  0  0  0  0  0  0  0
  -10.0837  -11.0563   39.3649 H   0  0  0  0  0  0  0  0  0  0  0  0
  -11.7561  -10.7909   37.5597 H   0  0  0  0  0  0  0  0  0  0  0  0
  1  2  2  0
  2  3  1  0
  3  4  1  0
  4  5  1  0
  5  6  2  0
  6  7  1  0
  7  8  2  0
  8  9  1  0
  9 10  2  0
 10 11  1  0
 11 12  1  0
  2 13  1  0
 13 14  1  0
 14 15  1  0
 15 16  2  0
 16 17  1  0
 17 18  1  0
 18 19  2  0
 19 20  1  0
 20 21  2  0
 21 22  1  0
 22 23  2  0
 12  4  2  0
 17 13  2  0
 23 18  1  0
 11  7  1  0
  3 24  1  0
  5 25  1  0
  9 26  1  0
 10 27  1  0
 12 28  1  0
 14 29  1  0
 16 30  1  0
 19 31  1  0
 20 32  1  0
 22 33  1  0
 23 34  1  0
M  END
>  <Energy>  (751) 
110.09171457786054

>  <compound_id>  (751) 
17680

>  <target_id>  (751) 
1

>  <reference_id>  (751) 
107

>  <inspiration_ids>  (751) 
[107, 7]

>  <energy_score>  (751) 
39.98863378380338

>  <distance_score>  (751) 
9.430285214076516

>  <path>  (751) 
/opt/xchem-fragalysis-2/maxwin/BulkDock/SCRATCH/511022/C17680-P107/C17680-P107.minimised.mol

>  <scratch_subdir>  (751) 
/opt/xchem-fragalysis-2/maxwin/BulkDock/SCRATCH/511022/C17680-P107

>  <fragmenstein_runtime>  (751) 
9.500579595565796

>  <fragmenstein_outcome>  (751) 
too moved

>  <fragmenstein_mode>  (751) 
expansion

>  <fragmenstein_error>  (751) 


$$$$
C17680-P7
     RDKit          3D

 34 37  0  0  0  0  0  0  0  0999 V2000
  -16.5076  -12.5529   34.5404 O   0  0  0  0  0  0  0  0  0  0  0  0
  -15.3551  -12.5104   34.8076 C   0  0  0  0  0  0  0  0  0  0  0  0
  -14.2308  -13.6710   34.7653 N   0  0  0  0  0  0  0  0  0  0  0  0
  -14.3599  -15.1662   34.4674 C   0  0  0  0  0  0  0  0  0  0  0  0
  -15.6103  -16.0309   34.4500 C   0  0  0  0  0  0  0  0  0  0  0  0
  -15.7271  -17.3440   34.4870 N   0  0  0  0  0  0  0  0  0  0  0  0
  -14.6037  -18.1050   34.6348 C   0  0  0  0  0  0  0  0  0  0  0  0
  -14.4531  -19.4144   34.5975 N   0  0  0  0  0  0  0  0  0  0  0  0
  -13.1063  -19.6419   34.7035 C   0  0  0  0  0  0  0  0  0  0  0  0
  -12.4432  -18.4436   34.7365 C   0  0  0  0  0  0  0  0  0  0  0  0
  -13.3921  -17.4614   34.5734 N   0  0  0  0  0  0  0  0  0  0  0  0
  -13.2904  -16.0480   34.4278 C   0  0  0  0  0  0  0  0  0  0  0  0
  -14.8077  -11.0498   35.4167 C   0  0  0  0  0  0  0  0  0  0  0  0
  -13.7333  -10.8947   36.3050 N   0  0  0  0  0  0  0  0  0  0  0  0
  -13.6157   -9.7131   36.9479 N   0  0  0  0  0  0  0  0  0  0  0  0
  -14.5404   -8.9550   36.3996 C   0  0  0  0  0  0  0  0  0  0  0  0
  -15.2647   -9.6583   35.3961 C   0  0  0  0  0  0  0  0  0  0  0  0
  -16.3167   -9.0038   34.6191 C   0  0  0  0  0  0  0  0  0  0  0  0
  -16.6114   -9.4480   33.3313 C   0  0  0  0  0  0  0  0  0  0  0  0
  -17.6016   -8.7983   32.6096 C   0  0  0  0  0  0  0  0  0  0  0  0
  -18.3164   -7.7551   33.0827 N   0  0  0  0  0  0  0  0  0  0  0  0
  -18.0373   -7.3593   34.3401 C   0  0  0  0  0  0  0  0  0  0  0  0
  -17.0626   -7.9403   35.1358 C   0  0  0  0  0  0  0  0  0  0  0  0
  -13.3372  -13.2803   34.9761 H   0  0  0  0  0  0  0  0  0  0  0  0
  -16.5469  -15.4475   34.4036 H   0  0  0  0  0  0  0  0  0  0  0  0
  -12.6951  -20.6421   34.7117 H   0  0  0  0  0  0  0  0  0  0  0  0
  -11.4085  -18.1704   34.7714 H   0  0  0  0  0  0  0  0  0  0  0  0
  -12.2647  -15.7163   34.3902 H   0  0  0  0  0  0  0  0  0  0  0  0
  -13.1154  -11.6262   36.6312 H   0  0  0  0  0  0  0  0  0  0  0  0
  -14.6766   -7.9431   36.7531 H   0  0  0  0  0  0  0  0  0  0  0  0
  -16.0727  -10.2717   32.8777 H   0  0  0  0  0  0  0  0  0  0  0  0
  -17.8494   -9.1104   31.5984 H   0  0  0  0  0  0  0  0  0  0  0  0
  -18.6387   -6.5339   34.7095 H   0  0  0  0  0  0  0  0  0  0  0  0
  -16.9138   -7.5628   36.1405 H   0  0  0  0  0  0  0  0  0  0  0  0
  1  2  2  0
  2  3  1  0
  3  4  1  0
  4  5  1  0
  5  6  2  0
  6  7  1  0
  7  8  2  0
  8  9  1  0
  9 10  2  0
 10 11  1  0
 11 12  1  0
  2 13  1  0
 13 14  1  0
 14 15  1  0
 15 16  2  0
 16 17  1  0
 17 18  1  0
 18 19  2  0
 19 20  1  0
 20 21  2  0
 21 22  1  0
 22 23  2  0
 12  4  2  0
 17 13  2  0
 23 18  1  0
 11  7  1  0
  3 24  1  0
  5 25  1  0
  9 26  1  0
 10 27  1  0
 12 28  1  0
 14 29  1  0
 16 30  1  0
 19 31  1  0
 20 32  1  0
 22 33  1  0
 23 34  1  0
M  END
>  <Energy>  (752) 
96.329188501865318

>  <compound_id>  (752) 
17680

>  <target_id>  (752) 
1

>  <reference_id>  (752) 
7

>  <inspiration_ids>  (752) 
[107, 7]

>  <energy_score>  (752) 
26.226107707807103

>  <distance_score>  (752) 
9.111198835576486

>  <path>  (752) 
/opt/xchem-fragalysis-2/maxwin/BulkDock/SCRATCH/511022/C17680-P7/C17680-P7.minimised.mol

>  <scratch_subdir>  (752) 
/opt/xchem-fragalysis-2/maxwin/BulkDock/SCRATCH/511022/C17680-P7

>  <fragmenstein_runtime>  (752) 
8.219097137451172

>  <fragmenstein_outcome>  (752) 
too moved

>  <fragmenstein_mode>  (752) 
expansion

>  <fragmenstein_error>  (752) 


$$$$
C17681-P107
     RDKit          3D

 39 42  0  0  0  0  0  0  0  0999 V2000
  -13.4676  -15.2052   30.4394 O   0  0  0  0  0  0  0  0  0  0  0  0
  -13.0010  -16.0560   30.9898 C   0  0  0  0  0  0  0  0  0  0  0  0
  -12.9279  -16.1883   32.6401 N   0  0  0  0  0  0  0  0  0  0  0  0
  -13.5113  -15.3302   33.7241 C   0  0  0  0  0  0  0  0  0  0  0  0
  -14.1293  -13.8770   33.7975 C   0  0  0  0  0  0  0  0  0  0  0  0
  -14.7147  -13.2129   34.7503 N   0  0  0  0  0  0  0  0  0  0  0  0
  -14.8806  -13.8859   35.8944 C   0  0  0  0  0  0  0  0  0  0  0  0
  -15.5103  -13.5135   36.9894 N   0  0  0  0  0  0  0  0  0  0  0  0
  -15.4102  -14.5725   37.8391 C   0  0  0  0  0  0  0  0  0  0  0  0
  -14.7100  -15.6071   37.2586 C   0  0  0  0  0  0  0  0  0  0  0  0
  -14.3576  -15.1658   36.0042 N   0  0  0  0  0  0  0  0  0  0  0  0
  -13.6681  -15.8410   34.9712 C   0  0  0  0  0  0  0  0  0  0  0  0
  -12.3084  -17.1722   30.1701 N   0  0  0  0  0  0  0  0  0  0  0  0
  -12.0961  -17.2701   29.0114 C   0  0  0  0  0  0  0  0  0  0  0  0
  -11.3235  -17.8083   28.1589 C   0  0  0  0  0  0  0  0  0  0  0  0
  -12.1002  -19.6533   28.6366 C   0  0  0  0  0  0  0  0  0  0  0  0
  -13.0114  -19.0094   29.3503 C   0  0  0  0  0  0  0  0  0  0  0  0
  -12.4402  -20.9490   29.9023 C   0  0  0  0  0  0  0  0  0  0  0  0
  -12.4132  -22.1673   29.0775 C   0  0  0  0  0  0  0  0  0  0  0  0
  -12.0622  -23.4332   29.5692 C   0  0  0  0  0  0  0  0  0  0  0  0
  -11.6853  -23.6836   30.8259 N   0  0  0  0  0  0  0  0  0  0  0  0
  -11.6551  -22.6257   31.6430 C   0  0  0  0  0  0  0  0  0  0  0  0
  -11.9601  -21.3139   31.2533 C   0  0  0  0  0  0  0  0  0  0  0  0
  -12.5351  -17.0778   32.8832 H   0  0  0  0  0  0  0  0  0  0  0  0
  -14.1232  -13.2533   32.9195 H   0  0  0  0  0  0  0  0  0  0  0  0
  -15.8587  -14.5435   38.8230 H   0  0  0  0  0  0  0  0  0  0  0  0
  -14.4500  -16.5924   37.6132 H   0  0  0  0  0  0  0  0  0  0  0  0
  -13.3393  -16.8429   35.2164 H   0  0  0  0  0  0  0  0  0  0  0  0
  -12.3937  -16.2013   28.8724 H   0  0  0  0  0  0  0  0  0  0  0  0
  -11.2066  -17.5869   29.4534 H   0  0  0  0  0  0  0  0  0  0  0  0
  -11.1413  -16.8510   27.5827 H   0  0  0  0  0  0  0  0  0  0  0  0
  -10.3706  -17.6780   27.4265 H   0  0  0  0  0  0  0  0  0  0  0  0
  -12.1810  -20.4359   27.8377 H   0  0  0  0  0  0  0  0  0  0  0  0
  -11.0316  -20.2484   29.1592 H   0  0  0  0  0  0  0  0  0  0  0  0
  -14.0610  -19.3789   29.3440 H   0  0  0  0  0  0  0  0  0  0  0  0
  -12.6175  -22.2111   28.0129 H   0  0  0  0  0  0  0  0  0  0  0  0
  -12.0709  -24.3008   28.9147 H   0  0  0  0  0  0  0  0  0  0  0  0
  -11.3532  -22.8451   32.6645 H   0  0  0  0  0  0  0  0  0  0  0  0
  -11.7929  -20.6163   32.0676 H   0  0  0  0  0  0  0  0  0  0  0  0
  1  2  2  0
  2  3  1  0
  3  4  1  0
  4  5  1  0
  5  6  2  0
  6  7  1  0
  7  8  2  0
  8  9  1  0
  9 10  2  0
 10 11  1  0
 11 12  1  0
  2 13  1  0
 13 14  1  0
 14 15  1  0
 15 16  1  0
 16 17  1  0
 17 18  1  0
 18 19  2  0
 19 20  1  0
 20 21  2  0
 21 22  1  0
 22 23  2  0
 12  4  2  0
 17 13  1  0
 23 18  1  0
 11  7  1  0
  3 24  1  0
  5 25  1  0
  9 26  1  0
 10 27  1  0
 12 28  1  0
 14 29  1  0
 14 30  1  0
 15 31  1  0
 15 32  1  0
 16 33  1  0
 16 34  1  0
 17 35  1  0
 19 36  1  0
 20 37  1  0
 22 38  1  0
 23 39  1  0
M  END
>  <Energy>  (753) 
865.2473746483505

>  <compound_id>  (753) 
17681

>  <target_id>  (753) 
1

>  <reference_id>  (753) 
107

>  <inspiration_ids>  (753) 
[107, 7]

>  <energy_score>  (753) 
821.3787990229812

>  <distance_score>  (753) 
9.794357226758944

>  <path>  (753) 
/opt/xchem-fragalysis-2/maxwin/BulkDock/SCRATCH/511022/C17681-P107/C17681-P107.minimised.mol

>  <scratch_subdir>  (753) 
/opt/xchem-fragalysis-2/maxwin/BulkDock/SCRATCH/511022/C17681-P107

>  <fragmenstein_runtime>  (753) 
8.783472537994385

>  <fragmenstein_outcome>  (753) 
too moved

>  <fragmenstein_mode>  (753) 
expansion

>  <fragmenstein_error>  (753) 


$$$$
C17681-P7
     RDKit          3D

 39 42  0  0  0  0  0  0  0  0999 V2000
  -14.0668   -9.1810   33.7247 O   0  0  0  0  0  0  0  0  0  0  0  0
  -13.3846   -9.9242   34.3182 C   0  0  0  0  0  0  0  0  0  0  0  0
  -11.6553  -10.0131   34.3246 N   0  0  0  0  0  0  0  0  0  0  0  0
  -10.3774   -9.1052   33.3413 C   0  0  0  0  0  0  0  0  0  0  0  0
  -10.1951   -8.3191   32.0250 C   0  0  0  0  0  0  0  0  0  0  0  0
   -9.2190   -7.9914   31.2224 N   0  0  0  0  0  0  0  0  0  0  0  0
   -7.9820   -8.1525   31.6979 C   0  0  0  0  0  0  0  0  0  0  0  0
   -6.8155   -7.7134   31.2864 N   0  0  0  0  0  0  0  0  0  0  0  0
   -5.9270   -8.1173   32.2463 C   0  0  0  0  0  0  0  0  0  0  0  0
   -6.5572   -8.8630   33.2120 C   0  0  0  0  0  0  0  0  0  0  0  0
   -7.8712   -8.8473   32.8434 N   0  0  0  0  0  0  0  0  0  0  0  0
   -8.9652   -9.3992   33.4546 C   0  0  0  0  0  0  0  0  0  0  0  0
  -13.9302  -10.9883   35.3718 N   0  0  0  0  0  0  0  0  0  0  0  0
  -15.2829  -11.2135   35.9085 C   0  0  0  0  0  0  0  0  0  0  0  0
  -16.3011  -11.3643   34.7863 C   0  0  0  0  0  0  0  0  0  0  0  0
  -15.4749  -12.0489   33.7402 C   0  0  0  0  0  0  0  0  0  0  0  0
  -14.2738  -12.4275   34.6148 C   0  0  0  0  0  0  0  0  0  0  0  0
  -14.6046  -13.9514   34.8637 C   0  0  0  0  0  0  0  0  0  0  0  0
  -13.8478  -14.9588   34.1782 C   0  0  0  0  0  0  0  0  0  0  0  0
  -13.9753  -16.3104   34.4917 C   0  0  0  0  0  0  0  0  0  0  0  0
  -14.9094  -16.7779   35.3299 N   0  0  0  0  0  0  0  0  0  0  0  0
  -15.7547  -15.8578   35.8511 C   0  0  0  0  0  0  0  0  0  0  0  0
  -15.6563  -14.4713   35.6427 C   0  0  0  0  0  0  0  0  0  0  0  0
  -11.3496  -10.6997   34.9981 H   0  0  0  0  0  0  0  0  0  0  0  0
  -11.0333   -7.9605   31.5286 H   0  0  0  0  0  0  0  0  0  0  0  0
   -4.8765   -7.8671   32.1782 H   0  0  0  0  0  0  0  0  0  0  0  0
   -6.2000   -9.3537   34.1046 H   0  0  0  0  0  0  0  0  0  0  0  0
   -8.5622  -10.0980   34.1953 H   0  0  0  0  0  0  0  0  0  0  0  0
  -15.2830  -11.9946   36.6769 H   0  0  0  0  0  0  0  0  0  0  0  0
  -15.5338  -10.2948   36.4547 H   0  0  0  0  0  0  0  0  0  0  0  0
  -16.6522  -10.3912   34.4251 H   0  0  0  0  0  0  0  0  0  0  0  0
  -17.1775  -11.9352   35.1053 H   0  0  0  0  0  0  0  0  0  0  0  0
  -15.2201  -11.3290   32.9715 H   0  0  0  0  0  0  0  0  0  0  0  0
  -16.0127  -12.8577   33.2458 H   0  0  0  0  0  0  0  0  0  0  0  0
  -13.3840  -12.4981   34.0849 H   0  0  0  0  0  0  0  0  0  0  0  0
  -13.1317  -14.7231   33.3969 H   0  0  0  0  0  0  0  0  0  0  0  0
  -13.3133  -17.0523   34.0588 H   0  0  0  0  0  0  0  0  0  0  0  0
  -16.5524  -16.2642   36.4703 H   0  0  0  0  0  0  0  0  0  0  0  0
  -16.3877  -13.8405   36.1351 H   0  0  0  0  0  0  0  0  0  0  0  0
  1  2  2  0
  2  3  1  0
  3  4  1  0
  4  5  1  0
  5  6  2  0
  6  7  1  0
  7  8  2  0
  8  9  1  0
  9 10  2  0
 10 11  1  0
 11 12  1  0
  2 13  1  0
 13 14  1  0
 14 15  1  0
 15 16  1  0
 16 17  1  0
 17 18  1  0
 18 19  2  0
 19 20  1  0
 20 21  2  0
 21 22  1  0
 22 23  2  0
 12  4  2  0
 17 13  1  0
 23 18  1  0
 11  7  1  0
  3 24  1  0
  5 25  1  0
  9 26  1  0
 10 27  1  0
 12 28  1  0
 14 29  1  0
 14 30  1  0
 15 31  1  0
 15 32  1  0
 16 33  1  0
 16 34  1  0
 17 35  1  0
 19 36  1  0
 20 37  1  0
 22 38  1  0
 23 39  1  0
M  END
>  <Energy>  (754) 
267.50851179754864

>  <compound_id>  (754) 
17681

>  <target_id>  (754) 
1

>  <reference_id>  (754) 
7

>  <inspiration_ids>  (754) 
[107, 7]

>  <energy_score>  (754) 
223.63993617218006

>  <distance_score>  (754) 
10.274752842383819

>  <path>  (754) 
/opt/xchem-fragalysis-2/maxwin/BulkDock/SCRATCH/511022/C17681-P7/C17681-P7.minimised.mol

>  <scratch_subdir>  (754) 
/opt/xchem-fragalysis-2/maxwin/BulkDock/SCRATCH/511022/C17681-P7

>  <fragmenstein_runtime>  (754) 
9.587050914764404

>  <fragmenstein_outcome>  (754) 
too moved

>  <fragmenstein_mode>  (754) 
expansion

>  <fragmenstein_error>  (754) 


$$$$
C54476-P107
     RDKit          3D

 39 42  0  0  0  0  0  0  0  0999 V2000
  -10.3903  -10.5886   36.6488 O   0  0  0  0  0  0  0  0  0  0  0  0
  -11.2421  -10.3510   35.8364 C   0  0  0  0  0  0  0  0  0  0  0  0
  -11.1499   -9.4690   34.2934 N   0  0  0  0  0  0  0  0  0  0  0  0
   -9.8830   -8.5676   33.5301 C   0  0  0  0  0  0  0  0  0  0  0  0
   -9.0313   -6.9747   33.7202 C   0  0  0  0  0  0  0  0  0  0  0  0
   -8.9182   -6.0248   34.7068 N   0  0  0  0  0  0  0  0  0  0  0  0
  -10.3547   -5.6760   35.3285 C   0  0  0  0  0  0  0  0  0  0  0  0
  -10.8953   -4.4341   35.9133 N   0  0  0  0  0  0  0  0  0  0  0  0
  -12.2102   -4.4937   35.7134 C   0  0  0  0  0  0  0  0  0  0  0  0
  -12.4696   -5.5869   34.9341 C   0  0  0  0  0  0  0  0  0  0  0  0
  -11.2634   -6.3282   34.6143 N   0  0  0  0  0  0  0  0  0  0  0  0
  -10.4037   -7.1552   33.3934 C   0  0  0  0  0  0  0  0  0  0  0  0
  -13.0031  -10.6760   35.9602 N   0  0  0  0  0  0  0  0  0  0  0  0
  -13.8252  -11.2035   37.1489 C   0  0  0  0  0  0  0  0  0  0  0  0
  -14.9744  -12.2427   37.0654 C   0  0  0  0  0  0  0  0  0  0  0  0
  -14.6254  -13.0335   35.8457 C   0  0  0  0  0  0  0  0  0  0  0  0
  -14.3687  -14.5532   35.8765 C   0  0  0  0  0  0  0  0  0  0  0  0
  -13.8043  -15.2176   34.7828 C   0  0  0  0  0  0  0  0  0  0  0  0
  -13.5388  -16.5887   34.8473 C   0  0  0  0  0  0  0  0  0  0  0  0
  -13.9069  -17.3067   35.9685 C   0  0  0  0  0  0  0  0  0  0  0  0
  -14.5231  -16.6054   36.9845 C   0  0  0  0  0  0  0  0  0  0  0  0
  -14.7525  -15.2640   36.9662 N   0  0  0  0  0  0  0  0  0  0  0  0
  -13.4658  -12.0755   35.3990 C   0  0  0  0  0  0  0  0  0  0  0  0
  -11.9841   -9.5235   33.8290 H   0  0  0  0  0  0  0  0  0  0  0  0
   -8.2133   -6.9151   32.9486 H   0  0  0  0  0  0  0  0  0  0  0  0
  -12.8743   -3.8542   36.2705 H   0  0  0  0  0  0  0  0  0  0  0  0
  -13.4484   -5.9990   34.7746 H   0  0  0  0  0  0  0  0  0  0  0  0
  -10.7807   -7.0079   32.3673 H   0  0  0  0  0  0  0  0  0  0  0  0
  -14.3826  -10.2804   37.3874 H   0  0  0  0  0  0  0  0  0  0  0  0
  -13.2220  -11.2149   38.0740 H   0  0  0  0  0  0  0  0  0  0  0  0
  -15.9325  -11.7260   36.9273 H   0  0  0  0  0  0  0  0  0  0  0  0
  -15.0465  -12.8282   37.9871 H   0  0  0  0  0  0  0  0  0  0  0  0
  -15.4758  -12.9506   35.1485 H   0  0  0  0  0  0  0  0  0  0  0  0
  -13.5643  -14.6841   33.8715 H   0  0  0  0  0  0  0  0  0  0  0  0
  -13.0376  -17.0814   34.0258 H   0  0  0  0  0  0  0  0  0  0  0  0
  -13.7224  -18.3708   36.0471 H   0  0  0  0  0  0  0  0  0  0  0  0
  -14.8573  -17.1092   37.8869 H   0  0  0  0  0  0  0  0  0  0  0  0
  -13.0303  -12.3520   34.4816 H   0  0  0  0  0  0  0  0  0  0  0  0
  -14.2116  -11.5471   34.7592 H   0  0  0  0  0  0  0  0  0  0  0  0
  1  2  2  0
  2  3  1  0
  3  4  1  0
  4  5  1  0
  5  6  2  0
  6  7  1  0
  7  8  2  0
  8  9  1  0
  9 10  2  0
 10 11  1  0
 11 12  1  0
  2 13  1  0
 13 14  1  0
 14 15  1  0
 15 16  1  0
 16 17  1  0
 17 18  2  0
 18 19  1  0
 19 20  2  0
 20 21  1  0
 21 22  2  0
 16 23  1  0
 12  4  2  0
 23 13  1  0
 11  7  1  0
 22 17  1  0
  3 24  1  0
  5 25  1  0
  9 26  1  0
 10 27  1  0
 12 28  1  0
 14 29  1  0
 14 30  1  0
 15 31  1  0
 15 32  1  0
 16 33  1  0
 18 34  1  0
 19 35  1  0
 20 36  1  0
 21 37  1  0
 23 38  1  0
 23 39  1  0
M  END
>  <Energy>  (755) 
564.3817103596964

>  <compound_id>  (755) 
54476

>  <target_id>  (755) 
1

>  <reference_id>  (755) 
107

>  <inspiration_ids>  (755) 
[107, 7]

>  <energy_score>  (755) 
514.4215804651624

>  <distance_score>  (755) 
8.460674159045007

>  <path>  (755) 
/opt/xchem-fragalysis-2/maxwin/BulkDock/SCRATCH/511022/C54476-P107/C54476-P107.minimised.mol

>  <scratch_subdir>  (755) 
/opt/xchem-fragalysis-2/maxwin/BulkDock/SCRATCH/511022/C54476-P107

>  <fragmenstein_runtime>  (755) 
9.91056227684021

>  <fragmenstein_outcome>  (755) 
too moved

>  <fragmenstein_mode>  (755) 
expansion

>  <fragmenstein_error>  (755) 


$$$$
C54476-P7
     RDKit          3D

 39 42  0  0  0  0  0  0  0  0999 V2000
  -13.7397  -10.4531   36.1386 O   0  0  0  0  0  0  0  0  0  0  0  0
  -14.9108  -10.4917   36.0730 C   0  0  0  0  0  0  0  0  0  0  0  0
  -15.9277   -9.7334   36.8090 N   0  0  0  0  0  0  0  0  0  0  0  0
  -15.8019   -8.7082   37.7059 C   0  0  0  0  0  0  0  0  0  0  0  0
  -14.5208   -8.4565   38.4582 C   0  0  0  0  0  0  0  0  0  0  0  0
  -14.2045   -7.3778   39.1144 N   0  0  0  0  0  0  0  0  0  0  0  0
  -15.0828   -6.3428   39.0365 C   0  0  0  0  0  0  0  0  0  0  0  0
  -14.9451   -5.1007   39.4553 N   0  0  0  0  0  0  0  0  0  0  0  0
  -16.1054   -4.4579   39.1184 C   0  0  0  0  0  0  0  0  0  0  0  0
  -16.9716   -5.3111   38.4776 C   0  0  0  0  0  0  0  0  0  0  0  0
  -16.3081   -6.5077   38.4026 N   0  0  0  0  0  0  0  0  0  0  0  0
  -16.6749   -7.6880   37.7636 C   0  0  0  0  0  0  0  0  0  0  0  0
  -15.7877  -11.2426   35.1519 N   0  0  0  0  0  0  0  0  0  0  0  0
  -15.4588  -12.0622   33.9927 C   0  0  0  0  0  0  0  0  0  0  0  0
  -14.5975  -13.2204   34.3182 C   0  0  0  0  0  0  0  0  0  0  0  0
  -15.6796  -13.9813   34.9692 C   0  0  0  0  0  0  0  0  0  0  0  0
  -15.2527  -15.3703   35.4137 C   0  0  0  0  0  0  0  0  0  0  0  0
  -14.3095  -16.1212   34.6665 C   0  0  0  0  0  0  0  0  0  0  0  0
  -13.8700  -17.3603   35.1168 C   0  0  0  0  0  0  0  0  0  0  0  0
  -14.4088  -17.8535   36.2856 C   0  0  0  0  0  0  0  0  0  0  0  0
  -15.3650  -17.0984   36.9431 C   0  0  0  0  0  0  0  0  0  0  0  0
  -15.7886  -15.8728   36.5389 N   0  0  0  0  0  0  0  0  0  0  0  0
  -16.1606  -12.7240   35.7922 C   0  0  0  0  0  0  0  0  0  0  0  0
  -16.8406   -9.9602   36.4408 H   0  0  0  0  0  0  0  0  0  0  0  0
  -13.8060   -9.2969   38.4693 H   0  0  0  0  0  0  0  0  0  0  0  0
  -16.2544   -3.4121   39.3544 H   0  0  0  0  0  0  0  0  0  0  0  0
  -17.9576   -5.1661   38.0626 H   0  0  0  0  0  0  0  0  0  0  0  0
  -17.6105   -7.6723   37.2217 H   0  0  0  0  0  0  0  0  0  0  0  0
  -14.8750  -11.3851   33.3641 H   0  0  0  0  0  0  0  0  0  0  0  0
  -16.3577  -12.2884   33.4069 H   0  0  0  0  0  0  0  0  0  0  0  0
  -14.1511  -13.6884   33.4640 H   0  0  0  0  0  0  0  0  0  0  0  0
  -13.7902  -12.9253   34.9875 H   0  0  0  0  0  0  0  0  0  0  0  0
  -16.4949  -14.1809   34.2738 H   0  0  0  0  0  0  0  0  0  0  0  0
  -13.8665  -15.7348   33.7525 H   0  0  0  0  0  0  0  0  0  0  0  0
  -13.0971  -17.9077   34.5841 H   0  0  0  0  0  0  0  0  0  0  0  0
  -14.0734  -18.7923   36.6925 H   0  0  0  0  0  0  0  0  0  0  0  0
  -15.8188  -17.4573   37.8635 H   0  0  0  0  0  0  0  0  0  0  0  0
  -17.2555  -12.7251   35.8775 H   0  0  0  0  0  0  0  0  0  0  0  0
  -15.7572  -12.7333   36.8110 H   0  0  0  0  0  0  0  0  0  0  0  0
  1  2  2  0
  2  3  1  0
  3  4  1  0
  4  5  1  0
  5  6  2  0
  6  7  1  0
  7  8  2  0
  8  9  1  0
  9 10  2  0
 10 11  1  0
 11 12  1  0
  2 13  1  0
 13 14  1  0
 14 15  1  0
 15 16  1  0
 16 17  1  0
 17 18  2  0
 18 19  1  0
 19 20  2  0
 20 21  1  0
 21 22  2  0
 16 23  1  0
 12  4  2  0
 23 13  1  0
 11  7  1  0
 22 17  1  0
  3 24  1  0
  5 25  1  0
  9 26  1  0
 10 27  1  0
 12 28  1  0
 14 29  1  0
 14 30  1  0
 15 31  1  0
 15 32  1  0
 16 33  1  0
 18 34  1  0
 19 35  1  0
 20 36  1  0
 21 37  1  0
 23 38  1  0
 23 39  1  0
M  END
>  <Energy>  (756) 
88.662604688340906

>  <compound_id>  (756) 
54476

>  <target_id>  (756) 
1

>  <reference_id>  (756) 
7

>  <inspiration_ids>  (756) 
[107, 7]

>  <energy_score>  (756) 
38.70247479380089

>  <distance_score>  (756) 
8.425746426224954

>  <path>  (756) 
/opt/xchem-fragalysis-2/maxwin/BulkDock/SCRATCH/511022/C54476-P7/C54476-P7.minimised.mol

>  <scratch_subdir>  (756) 
/opt/xchem-fragalysis-2/maxwin/BulkDock/SCRATCH/511022/C54476-P7

>  <fragmenstein_runtime>  (756) 
13.349411010742188

>  <fragmenstein_outcome>  (756) 
too moved

>  <fragmenstein_mode>  (756) 
expansion

>  <fragmenstein_error>  (756) 


$$$$
C54477-P107
     RDKit          3D

 27 29  0  0  0  0  0  0  0  0999 V2000
  -15.1015  -14.0774   35.4866 C   0  0  0  0  0  0  0  0  0  0  0  0
  -14.1958  -15.1570   35.2774 C   0  0  0  0  0  0  0  0  0  0  0  0
  -14.1162  -16.7740   34.9583 C   0  0  0  0  0  0  0  0  0  0  0  0
  -12.9526  -17.5726   35.0218 C   0  0  0  0  0  0  0  0  0  0  0  0
  -13.2279  -18.8677   34.5545 N   0  0  0  0  0  0  0  0  0  0  0  0
  -12.3930  -19.9492   34.2125 C   0  0  0  0  0  0  0  0  0  0  0  0
  -12.8650  -21.0681   33.6292 C   0  0  0  0  0  0  0  0  0  0  0  0
  -14.3318  -21.0241   33.3843 C   0  0  0  0  0  0  0  0  0  0  0  0
  -15.1251  -20.0243   33.6728 N   0  0  0  0  0  0  0  0  0  0  0  0
  -14.5880  -18.9083   34.3019 C   0  0  0  0  0  0  0  0  0  0  0  0
  -15.1150  -17.6709   34.4873 N   0  0  0  0  0  0  0  0  0  0  0  0
  -15.0106  -12.3641   35.9282 C   0  0  0  0  0  0  0  0  0  0  0  0
  -16.0444  -11.6258   36.5571 C   0  0  0  0  0  0  0  0  0  0  0  0
  -15.8217  -10.4249   37.3305 C   0  0  0  0  0  0  0  0  0  0  0  0
  -14.5397  -10.0026   37.5735 C   0  0  0  0  0  0  0  0  0  0  0  0
  -13.6170  -10.6569   36.8021 C   0  0  0  0  0  0  0  0  0  0  0  0
  -13.8652  -11.6815   35.8742 N   0  0  0  0  0  0  0  0  0  0  0  0
  -16.1632  -14.3165   35.4251 H   0  0  0  0  0  0  0  0  0  0  0  0
  -13.1765  -14.8222   35.3810 H   0  0  0  0  0  0  0  0  0  0  0  0
  -11.9346  -17.3093   35.2662 H   0  0  0  0  0  0  0  0  0  0  0  0
  -11.3553  -19.7525   34.3747 H   0  0  0  0  0  0  0  0  0  0  0  0
  -12.2771  -21.9184   33.3187 H   0  0  0  0  0  0  0  0  0  0  0  0
  -14.7581  -21.9205   32.9015 H   0  0  0  0  0  0  0  0  0  0  0  0
  -17.0432  -12.0577   36.5644 H   0  0  0  0  0  0  0  0  0  0  0  0
  -16.6648   -9.9737   37.8464 H   0  0  0  0  0  0  0  0  0  0  0  0
  -14.2956   -9.2538   38.3080 H   0  0  0  0  0  0  0  0  0  0  0  0
  -12.5575  -10.4597   36.8936 H   0  0  0  0  0  0  0  0  0  0  0  0
  1  2  2  3
  2  3  1  0
  3  4  2  0
  4  5  1  0
  5  6  1  0
  6  7  2  0
  7  8  1  0
  8  9  2  0
  9 10  1  0
 10 11  2  0
  1 12  1  0
 12 13  2  0
 13 14  1  0
 14 15  2  0
 15 16  1  0
 16 17  2  0
 11  3  1  0
 17 12  1  0
 10  5  1  0
  1 18  1  0
  2 19  1  0
  4 20  1  0
  6 21  1  0
  7 22  1  0
  8 23  1  0
 13 24  1  0
 14 25  1  0
 15 26  1  0
 16 27  1  0
M  END
>  <Energy>  (757) 
113.89963540004779

>  <compound_id>  (757) 
54477

>  <target_id>  (757) 
1

>  <reference_id>  (757) 
107

>  <inspiration_ids>  (757) 
[107, 7]

>  <energy_score>  (757) 
65.98842932829132

>  <distance_score>  (757) 
8.49960538441841

>  <path>  (757) 
/opt/xchem-fragalysis-2/maxwin/BulkDock/SCRATCH/511022/C54477-P107/C54477-P107.minimised.mol

>  <scratch_subdir>  (757) 
/opt/xchem-fragalysis-2/maxwin/BulkDock/SCRATCH/511022/C54477-P107

>  <fragmenstein_runtime>  (757) 
3.2127785682678223

>  <fragmenstein_outcome>  (757) 
too moved

>  <fragmenstein_mode>  (757) 
expansion

>  <fragmenstein_error>  (757) 


$$$$
C54477-P7
     RDKit          3D

 27 29  0  0  0  0  0  0  0  0999 V2000
  -13.1437   -8.1370   35.9175 C   0  0  0  0  0  0  0  0  0  0  0  0
  -13.2731   -9.4514   35.4166 C   0  0  0  0  0  0  0  0  0  0  0  0
  -14.2657  -10.5052   35.3907 C   0  0  0  0  0  0  0  0  0  0  0  0
  -13.8865  -11.8205   35.3169 C   0  0  0  0  0  0  0  0  0  0  0  0
  -14.9516  -12.5458   34.8892 N   0  0  0  0  0  0  0  0  0  0  0  0
  -15.0600  -13.8806   34.5058 C   0  0  0  0  0  0  0  0  0  0  0  0
  -16.2647  -14.3926   34.2294 C   0  0  0  0  0  0  0  0  0  0  0  0
  -17.3759  -13.4125   34.3403 C   0  0  0  0  0  0  0  0  0  0  0  0
  -17.2863  -12.1612   34.6835 N   0  0  0  0  0  0  0  0  0  0  0  0
  -16.0298  -11.6753   34.9246 C   0  0  0  0  0  0  0  0  0  0  0  0
  -15.6171  -10.4280   35.1696 N   0  0  0  0  0  0  0  0  0  0  0  0
  -11.7625   -6.5619   35.6240 C   0  0  0  0  0  0  0  0  0  0  0  0
  -10.9774   -5.3663   35.7569 C   0  0  0  0  0  0  0  0  0  0  0  0
  -11.0543   -3.9016   36.3125 C   0  0  0  0  0  0  0  0  0  0  0  0
  -12.1686   -3.2850   36.7967 C   0  0  0  0  0  0  0  0  0  0  0  0
  -13.1994   -4.1172   36.7168 C   0  0  0  0  0  0  0  0  0  0  0  0
  -12.9818   -5.4192   36.2121 N   0  0  0  0  0  0  0  0  0  0  0  0
  -14.0685   -7.8406   36.4890 H   0  0  0  0  0  0  0  0  0  0  0  0
  -12.3775   -9.8292   34.9171 H   0  0  0  0  0  0  0  0  0  0  0  0
  -12.9323  -12.2362   35.5088 H   0  0  0  0  0  0  0  0  0  0  0  0
  -14.1559  -14.4572   34.3925 H   0  0  0  0  0  0  0  0  0  0  0  0
  -16.4571  -15.4028   33.9090 H   0  0  0  0  0  0  0  0  0  0  0  0
  -18.3762  -13.8186   34.1156 H   0  0  0  0  0  0  0  0  0  0  0  0
   -9.9415   -5.5881   35.5798 H   0  0  0  0  0  0  0  0  0  0  0  0
  -10.1557   -3.2940   36.2998 H   0  0  0  0  0  0  0  0  0  0  0  0
  -12.2167   -2.2733   37.1587 H   0  0  0  0  0  0  0  0  0  0  0  0
  -14.2211   -3.8860   36.9888 H   0  0  0  0  0  0  0  0  0  0  0  0
  1  2  2  3
  2  3  1  0
  3  4  2  0
  4  5  1  0
  5  6  1  0
  6  7  2  0
  7  8  1  0
  8  9  2  0
  9 10  1  0
 10 11  2  0
  1 12  1  0
 12 13  2  0
 13 14  1  0
 14 15  2  0
 15 16  1  0
 16 17  2  0
 11  3  1  0
 17 12  1  0
 10  5  1  0
  1 18  1  0
  2 19  1  0
  4 20  1  0
  6 21  1  0
  7 22  1  0
  8 23  1  0
 13 24  1  0
 14 25  1  0
 15 26  1  0
 16 27  1  0
M  END
>  <Energy>  (758) 
350.27870533593756

>  <compound_id>  (758) 
54477

>  <target_id>  (758) 
1

>  <reference_id>  (758) 
7

>  <inspiration_ids>  (758) 
[107, 7]

>  <energy_score>  (758) 
302.72610695613946

>  <distance_score>  (758) 
10.326245427123247

>  <path>  (758) 
/opt/xchem-fragalysis-2/maxwin/BulkDock/SCRATCH/511022/C54477-P7/C54477-P7.minimised.mol

>  <scratch_subdir>  (758) 
/opt/xchem-fragalysis-2/maxwin/BulkDock/SCRATCH/511022/C54477-P7

>  <fragmenstein_runtime>  (758) 
5.780221223831177

>  <fragmenstein_outcome>  (758) 
too moved

>  <fragmenstein_mode>  (758) 
expansion

>  <fragmenstein_error>  (758) 


$$$$
C54478-P107
     RDKit          3D

 41 44  0  0  0  0  0  0  0  0999 V2000
  -16.8852  -10.6769   36.4831 C   0  0  0  0  0  0  0  0  0  0  0  0
  -15.6992  -10.8499   37.3232 N   0  0  0  0  0  0  0  0  0  0  0  0
  -15.6302  -12.3151   37.7553 C   0  0  0  0  0  0  0  0  0  0  0  0
  -15.4386  -13.5085   36.7710 C   0  0  0  0  0  0  0  0  0  0  0  0
  -14.7740  -13.6815   35.5625 C   0  0  0  0  0  0  0  0  0  0  0  0
  -14.5690  -15.0460   35.4184 N   0  0  0  0  0  0  0  0  0  0  0  0
  -13.7365  -15.7712   34.5650 C   0  0  0  0  0  0  0  0  0  0  0  0
  -13.6006  -17.0949   34.7349 C   0  0  0  0  0  0  0  0  0  0  0  0
  -14.4829  -17.6923   35.7617 C   0  0  0  0  0  0  0  0  0  0  0  0
  -15.2914  -17.0464   36.5429 N   0  0  0  0  0  0  0  0  0  0  0  0
  -15.2865  -15.6798   36.4276 C   0  0  0  0  0  0  0  0  0  0  0  0
  -15.8240  -14.7776   37.2267 N   0  0  0  0  0  0  0  0  0  0  0  0
  -15.8674  -10.0215   38.5873 C   0  0  0  0  0  0  0  0  0  0  0  0
  -15.5671   -8.5074   38.6390 C   0  0  0  0  0  0  0  0  0  0  0  0
  -14.6450   -7.9936   39.4436 N   0  0  0  0  0  0  0  0  0  0  0  0
  -14.7210   -6.6133   39.4797 C   0  0  0  0  0  0  0  0  0  0  0  0
  -15.6595   -6.0577   38.6391 C   0  0  0  0  0  0  0  0  0  0  0  0
  -16.5667   -7.2947   37.8901 S   0  0  0  0  0  0  0  0  0  0  0  0
  -15.8166   -4.5946   38.3748 C   0  0  0  0  0  0  0  0  0  0  0  0
  -15.0325   -3.7642   39.4094 C   0  0  0  0  0  0  0  0  0  0  0  0
  -13.6595   -4.3689   39.7482 C   0  0  0  0  0  0  0  0  0  0  0  0
  -13.7802   -5.7995   40.3036 C   0  0  0  0  0  0  0  0  0  0  0  0
  -17.8009  -11.0271   36.9745 H   0  0  0  0  0  0  0  0  0  0  0  0
  -17.0418   -9.6336   36.2033 H   0  0  0  0  0  0  0  0  0  0  0  0
  -16.7721  -11.2319   35.5456 H   0  0  0  0  0  0  0  0  0  0  0  0
  -16.5334  -12.5443   38.3395 H   0  0  0  0  0  0  0  0  0  0  0  0
  -14.7847  -12.4025   38.4506 H   0  0  0  0  0  0  0  0  0  0  0  0
  -14.2897  -12.9638   34.9159 H   0  0  0  0  0  0  0  0  0  0  0  0
  -13.1802  -15.2251   33.8159 H   0  0  0  0  0  0  0  0  0  0  0  0
  -12.9312  -17.7306   34.1803 H   0  0  0  0  0  0  0  0  0  0  0  0
  -14.4372  -18.7904   35.8356 H   0  0  0  0  0  0  0  0  0  0  0  0
  -15.1785  -10.4426   39.3340 H   0  0  0  0  0  0  0  0  0  0  0  0
  -16.8737  -10.1778   39.0014 H   0  0  0  0  0  0  0  0  0  0  0  0
  -15.4292   -4.3734   37.3747 H   0  0  0  0  0  0  0  0  0  0  0  0
  -16.8726   -4.3033   38.3929 H   0  0  0  0  0  0  0  0  0  0  0  0
  -14.9104   -2.7403   39.0382 H   0  0  0  0  0  0  0  0  0  0  0  0
  -15.6214   -3.6973   40.3336 H   0  0  0  0  0  0  0  0  0  0  0  0
  -13.0413   -4.3736   38.8422 H   0  0  0  0  0  0  0  0  0  0  0  0
  -13.1445   -3.7369   40.4805 H   0  0  0  0  0  0  0  0  0  0  0  0
  -14.1584   -5.7628   41.3320 H   0  0  0  0  0  0  0  0  0  0  0  0
  -12.7911   -6.2693   40.3326 H   0  0  0  0  0  0  0  0  0  0  0  0
  1  2  1  0
  2  3  1  0
  3  4  1  0
  4  5  2  0
  5  6  1  0
  6  7  1  0
  7  8  2  0
  8  9  1  0
  9 10  2  0
 10 11  1  0
 11 12  2  0
  2 13  1  0
 13 14  1  0
 14 15  2  0
 15 16  1  0
 16 17  2  0
 17 18  1  0
 17 19  1  0
 19 20  1  0
 20 21  1  0
 21 22  1  0
 12  4  1  0
 18 14  1  0
 11  6  1  0
 22 16  1  0
  1 23  1  0
  1 24  1  0
  1 25  1  0
  3 26  1  0
  3 27  1  0
  5 28  1  0
  7 29  1  0
  8 30  1  0
  9 31  1  0
 13 32  1  0
 13 33  1  0
 19 34  1  0
 19 35  1  0
 20 36  1  0
 20 37  1  0
 21 38  1  0
 21 39  1  0
 22 40  1  0
 22 41  1  0
M  END
>  <Energy>  (759) 
90.38639988927234

>  <compound_id>  (759) 
54478

>  <target_id>  (759) 
1

>  <reference_id>  (759) 
107

>  <inspiration_ids>  (759) 
[107, 7]

>  <energy_score>  (759) 
-57.600075217753556

>  <distance_score>  (759) 
8.810867493617167

>  <path>  (759) 
/opt/xchem-fragalysis-2/maxwin/BulkDock/SCRATCH/511022/C54478-P107/C54478-P107.minimised.mol

>  <scratch_subdir>  (759) 
/opt/xchem-fragalysis-2/maxwin/BulkDock/SCRATCH/511022/C54478-P107

>  <fragmenstein_runtime>  (759) 
13.102782011032104

>  <fragmenstein_outcome>  (759) 
too moved

>  <fragmenstein_mode>  (759) 
expansion

>  <fragmenstein_error>  (759) 


$$$$
C54478-P7
     RDKit          3D

 41 44  0  0  0  0  0  0  0  0999 V2000
  -14.0265  -10.5843   36.1530 C   0  0  0  0  0  0  0  0  0  0  0  0
  -15.4594  -10.6667   35.8528 N   0  0  0  0  0  0  0  0  0  0  0  0
  -15.6732  -11.5426   34.6293 C   0  0  0  0  0  0  0  0  0  0  0  0
  -15.4097  -13.0681   34.7390 C   0  0  0  0  0  0  0  0  0  0  0  0
  -16.2898  -14.1162   34.9967 C   0  0  0  0  0  0  0  0  0  0  0  0
  -15.5770  -15.2873   34.8470 N   0  0  0  0  0  0  0  0  0  0  0  0
  -15.9086  -16.6095   35.1481 C   0  0  0  0  0  0  0  0  0  0  0  0
  -14.9627  -17.5625   35.0959 C   0  0  0  0  0  0  0  0  0  0  0  0
  -13.6118  -17.0813   34.6834 C   0  0  0  0  0  0  0  0  0  0  0  0
  -13.3080  -15.8604   34.3649 N   0  0  0  0  0  0  0  0  0  0  0  0
  -14.3081  -14.9332   34.4196 C   0  0  0  0  0  0  0  0  0  0  0  0
  -14.1827  -13.6177   34.3831 N   0  0  0  0  0  0  0  0  0  0  0  0
  -15.9772   -9.2761   35.5418 C   0  0  0  0  0  0  0  0  0  0  0  0
  -15.8177   -8.1170   36.5505 C   0  0  0  0  0  0  0  0  0  0  0  0
  -15.2504   -8.1292   37.7452 N   0  0  0  0  0  0  0  0  0  0  0  0
  -15.2316   -6.8544   38.2903 C   0  0  0  0  0  0  0  0  0  0  0  0
  -15.7008   -5.8527   37.4687 C   0  0  0  0  0  0  0  0  0  0  0  0
  -16.4338   -6.5359   36.0940 S   0  0  0  0  0  0  0  0  0  0  0  0
  -15.6588   -4.3913   37.7685 C   0  0  0  0  0  0  0  0  0  0  0  0
  -14.7254   -4.1218   38.9629 C   0  0  0  0  0  0  0  0  0  0  0  0
  -14.9330   -5.1438   40.0976 C   0  0  0  0  0  0  0  0  0  0  0  0
  -14.6717   -6.5960   39.6499 C   0  0  0  0  0  0  0  0  0  0  0  0
  -13.6075  -11.5802   36.3073 H   0  0  0  0  0  0  0  0  0  0  0  0
  -13.4628  -10.1104   35.3424 H   0  0  0  0  0  0  0  0  0  0  0  0
  -13.8361  -10.0430   37.0827 H   0  0  0  0  0  0  0  0  0  0  0  0
  -16.7261  -11.4473   34.3316 H   0  0  0  0  0  0  0  0  0  0  0  0
  -15.0726  -11.1613   33.7931 H   0  0  0  0  0  0  0  0  0  0  0  0
  -17.3310  -14.1152   35.2838 H   0  0  0  0  0  0  0  0  0  0  0  0
  -16.9235  -16.8010   35.4734 H   0  0  0  0  0  0  0  0  0  0  0  0
  -15.1092  -18.6020   35.3540 H   0  0  0  0  0  0  0  0  0  0  0  0
  -12.8242  -17.8537   34.6699 H   0  0  0  0  0  0  0  0  0  0  0  0
  -15.5375   -8.9457   34.5913 H   0  0  0  0  0  0  0  0  0  0  0  0
  -17.0580   -9.3788   35.3740 H   0  0  0  0  0  0  0  0  0  0  0  0
  -15.3071   -3.8240   36.9008 H   0  0  0  0  0  0  0  0  0  0  0  0
  -16.6704   -4.0439   38.0105 H   0  0  0  0  0  0  0  0  0  0  0  0
  -13.6811   -4.1568   38.6326 H   0  0  0  0  0  0  0  0  0  0  0  0
  -14.9021   -3.1076   39.3391 H   0  0  0  0  0  0  0  0  0  0  0  0
  -14.2808   -4.9010   40.9441 H   0  0  0  0  0  0  0  0  0  0  0  0
  -15.9661   -5.0595   40.4595 H   0  0  0  0  0  0  0  0  0  0  0  0
  -15.1178   -7.2865   40.3745 H   0  0  0  0  0  0  0  0  0  0  0  0
  -13.5948   -6.7894   39.6459 H   0  0  0  0  0  0  0  0  0  0  0  0
  1  2  1  0
  2  3  1  0
  3  4  1  0
  4  5  2  0
  5  6  1  0
  6  7  1  0
  7  8  2  0
  8  9  1  0
  9 10  2  0
 10 11  1  0
 11 12  2  0
  2 13  1  0
 13 14  1  0
 14 15  2  0
 15 16  1  0
 16 17  2  0
 17 18  1  0
 17 19  1  0
 19 20  1  0
 20 21  1  0
 21 22  1  0
 12  4  1  0
 18 14  1  0
 11  6  1  0
 22 16  1  0
  1 23  1  0
  1 24  1  0
  1 25  1  0
  3 26  1  0
  3 27  1  0
  5 28  1  0
  7 29  1  0
  8 30  1  0
  9 31  1  0
 13 32  1  0
 13 33  1  0
 19 34  1  0
 19 35  1  0
 20 36  1  0
 20 37  1  0
 21 38  1  0
 21 39  1  0
 22 40  1  0
 22 41  1  0
M  END
>  <Energy>  (760) 
83.534978284494343

>  <compound_id>  (760) 
54478

>  <target_id>  (760) 
1

>  <reference_id>  (760) 
7

>  <inspiration_ids>  (760) 
[107, 7]

>  <energy_score>  (760) 
-64.45149682253373

>  <distance_score>  (760) 
8.55631190049299

>  <path>  (760) 
/opt/xchem-fragalysis-2/maxwin/BulkDock/SCRATCH/511022/C54478-P7/C54478-P7.minimised.mol

>  <scratch_subdir>  (760) 
/opt/xchem-fragalysis-2/maxwin/BulkDock/SCRATCH/511022/C54478-P7

>  <fragmenstein_runtime>  (760) 
8.223907470703125

>  <fragmenstein_outcome>  (760) 
too moved

>  <fragmenstein_mode>  (760) 
expansion

>  <fragmenstein_error>  (760) 


$$$$
C13887-P107
     RDKit          3D

 45 48  0  0  0  0  0  0  0  0999 V2000
  -17.3798   -8.6447   37.1720 C   0  0  0  0  0  0  0  0  0  0  0  0
  -16.5878   -7.8733   38.0087 C   0  0  0  0  0  0  0  0  0  0  0  0
  -15.4587   -8.3290   38.5830 N   0  0  0  0  0  0  0  0  0  0  0  0
  -15.1392   -9.6266   38.3378 C   0  0  0  0  0  0  0  0  0  0  0  0
  -15.8665  -10.5023   37.5157 C   0  0  0  0  0  0  0  0  0  0  0  0
  -15.2597  -11.8584   37.1884 C   0  0  0  0  0  0  0  0  0  0  0  0
  -16.0775  -13.1379   36.9230 N   0  0  0  0  0  0  0  0  0  0  0  0
  -15.0198  -14.1930   36.5824 C   0  0  0  0  0  0  0  0  0  0  0  0
  -15.2894  -15.6341   36.1227 C   0  0  0  0  0  0  0  0  0  0  0  0
  -16.3280  -16.5331   36.2743 C   0  0  0  0  0  0  0  0  0  0  0  0
  -15.9440  -17.7032   35.6516 N   0  0  0  0  0  0  0  0  0  0  0  0
  -16.6518  -18.8807   35.4201 C   0  0  0  0  0  0  0  0  0  0  0  0
  -16.0726  -19.8890   34.7518 C   0  0  0  0  0  0  0  0  0  0  0  0
  -14.6628  -19.6401   34.3541 C   0  0  0  0  0  0  0  0  0  0  0  0
  -13.9964  -18.5406   34.5388 N   0  0  0  0  0  0  0  0  0  0  0  0
  -14.6409  -17.5326   35.2053 C   0  0  0  0  0  0  0  0  0  0  0  0
  -14.2333  -16.3106   35.4888 N   0  0  0  0  0  0  0  0  0  0  0  0
  -16.7738  -13.5640   38.1593 C   0  0  0  0  0  0  0  0  0  0  0  0
  -18.1049  -12.8500   38.4777 C   0  0  0  0  0  0  0  0  0  0  0  0
  -19.1456  -12.9411   37.3684 C   0  0  0  0  0  0  0  0  0  0  0  0
  -19.9150  -14.1856   37.7303 C   0  0  0  0  0  0  0  0  0  0  0  0
  -19.9246  -14.1164   39.2391 C   0  0  0  0  0  0  0  0  0  0  0  0
  -18.6948  -13.4948   39.6345 O   0  0  0  0  0  0  0  0  0  0  0  0
  -17.0017   -9.9682   36.9100 C   0  0  0  0  0  0  0  0  0  0  0  0
  -18.2740   -8.2267   36.7229 H   0  0  0  0  0  0  0  0  0  0  0  0
  -16.8469   -6.8440   38.2379 H   0  0  0  0  0  0  0  0  0  0  0  0
  -14.2154   -9.9529   38.8137 H   0  0  0  0  0  0  0  0  0  0  0  0
  -14.5807  -12.0917   38.0171 H   0  0  0  0  0  0  0  0  0  0  0  0
  -14.6574  -11.6746   36.2895 H   0  0  0  0  0  0  0  0  0  0  0  0
  -14.4125  -14.3248   37.4798 H   0  0  0  0  0  0  0  0  0  0  0  0
  -14.4038  -13.7731   35.7769 H   0  0  0  0  0  0  0  0  0  0  0  0
  -17.3087  -16.4308   36.7129 H   0  0  0  0  0  0  0  0  0  0  0  0
  -17.6706  -18.9186   35.7840 H   0  0  0  0  0  0  0  0  0  0  0  0
  -16.5421  -20.8345   34.5202 H   0  0  0  0  0  0  0  0  0  0  0  0
  -14.1663  -20.4893   33.8544 H   0  0  0  0  0  0  0  0  0  0  0  0
  -17.0098  -14.6313   38.1024 H   0  0  0  0  0  0  0  0  0  0  0  0
  -16.1110  -13.4861   39.0327 H   0  0  0  0  0  0  0  0  0  0  0  0
  -17.9206  -11.8112   38.7583 H   0  0  0  0  0  0  0  0  0  0  0  0
  -18.7326  -12.9645   36.3571 H   0  0  0  0  0  0  0  0  0  0  0  0
  -19.8165  -12.0750   37.4299 H   0  0  0  0  0  0  0  0  0  0  0  0
  -20.9184  -14.2219   37.2983 H   0  0  0  0  0  0  0  0  0  0  0  0
  -19.3682  -15.0754   37.4003 H   0  0  0  0  0  0  0  0  0  0  0  0
  -20.0055  -15.1022   39.7053 H   0  0  0  0  0  0  0  0  0  0  0  0
  -20.7469  -13.4903   39.6016 H   0  0  0  0  0  0  0  0  0  0  0  0
  -17.5838  -10.5782   36.2236 H   0  0  0  0  0  0  0  0  0  0  0  0
  1  2  2  0
  2  3  1  0
  3  4  2  0
  4  5  1  0
  5  6  1  0
  6  7  1  0
  7  8  1  0
  8  9  1  0
  9 10  2  0
 10 11  1  0
 11 12  1  0
 12 13  2  0
 13 14  1  0
 14 15  2  0
 15 16  1  0
 16 17  2  0
  7 18  1  0
 18 19  1  0
 19 20  1  0
 20 21  1  0
 21 22  1  0
 22 23  1  0
  5 24  2  0
 24  1  1  0
 17  9  1  0
 23 19  1  0
 16 11  1  0
  1 25  1  0
  2 26  1  0
  4 27  1  0
  6 28  1  0
  6 29  1  0
  8 30  1  0
  8 31  1  0
 10 32  1  0
 12 33  1  0
 13 34  1  0
 14 35  1  0
 18 36  1  0
 18 37  1  0
 19 38  1  0
 20 39  1  0
 20 40  1  0
 21 41  1  0
 21 42  1  0
 22 43  1  0
 22 44  1  0
 24 45  1  0
M  END
>  <Energy>  (761) 
103.88979485524023

>  <compound_id>  (761) 
13887

>  <target_id>  (761) 
1

>  <reference_id>  (761) 
107

>  <inspiration_ids>  (761) 
[107, 7]

>  <energy_score>  (761) 
-20.564291910327228

>  <distance_score>  (761) 
9.140660021789817

>  <path>  (761) 
/opt/xchem-fragalysis-2/maxwin/BulkDock/SCRATCH/511022/C13887-P107/C13887-P107.minimised.mol

>  <scratch_subdir>  (761) 
/opt/xchem-fragalysis-2/maxwin/BulkDock/SCRATCH/511022/C13887-P107

>  <fragmenstein_runtime>  (761) 
10.947232961654663

>  <fragmenstein_outcome>  (761) 
too moved

>  <fragmenstein_mode>  (761) 
expansion

>  <fragmenstein_error>  (761) 


$$$$
C13887-P7
     RDKit          3D

 45 48  0  0  0  0  0  0  0  0999 V2000
  -16.5803   -5.9922   36.1048 C   0  0  0  0  0  0  0  0  0  0  0  0
  -16.0375   -5.3104   37.1810 C   0  0  0  0  0  0  0  0  0  0  0  0
  -15.3211   -5.9090   38.1483 N   0  0  0  0  0  0  0  0  0  0  0  0
  -15.1564   -7.2481   38.0246 C   0  0  0  0  0  0  0  0  0  0  0  0
  -15.6343   -8.0334   36.9651 C   0  0  0  0  0  0  0  0  0  0  0  0
  -15.2013   -9.4826   36.8965 C   0  0  0  0  0  0  0  0  0  0  0  0
  -15.9354  -10.5297   36.0862 N   0  0  0  0  0  0  0  0  0  0  0  0
  -15.2125  -11.8161   36.3308 C   0  0  0  0  0  0  0  0  0  0  0  0
  -15.5612  -13.1302   35.6020 C   0  0  0  0  0  0  0  0  0  0  0  0
  -14.9683  -13.6321   34.4537 C   0  0  0  0  0  0  0  0  0  0  0  0
  -14.8413  -14.9931   34.6600 N   0  0  0  0  0  0  0  0  0  0  0  0
  -13.8880  -15.8981   34.1763 C   0  0  0  0  0  0  0  0  0  0  0  0
  -13.8016  -17.1268   34.7108 C   0  0  0  0  0  0  0  0  0  0  0  0
  -14.8681  -17.4497   35.6916 C   0  0  0  0  0  0  0  0  0  0  0  0
  -15.7503  -16.6221   36.1629 N   0  0  0  0  0  0  0  0  0  0  0  0
  -15.6725  -15.3249   35.7296 C   0  0  0  0  0  0  0  0  0  0  0  0
  -16.0716  -14.2104   36.3263 N   0  0  0  0  0  0  0  0  0  0  0  0
  -17.3718  -10.6500   36.4023 C   0  0  0  0  0  0  0  0  0  0  0  0
  -17.8860  -11.3010   37.7035 C   0  0  0  0  0  0  0  0  0  0  0  0
  -17.4492  -10.6572   39.0070 C   0  0  0  0  0  0  0  0  0  0  0  0
  -18.5391  -11.1067   39.9485 C   0  0  0  0  0  0  0  0  0  0  0  0
  -19.7685  -11.0321   39.0707 C   0  0  0  0  0  0  0  0  0  0  0  0
  -19.3327  -11.2138   37.7164 O   0  0  0  0  0  0  0  0  0  0  0  0
  -16.3547   -7.3642   35.9833 C   0  0  0  0  0  0  0  0  0  0  0  0
  -17.1660   -5.4687   35.3629 H   0  0  0  0  0  0  0  0  0  0  0  0
  -16.1762   -4.2398   37.2968 H   0  0  0  0  0  0  0  0  0  0  0  0
  -14.5664   -7.6933   38.8244 H   0  0  0  0  0  0  0  0  0  0  0  0
  -14.1801   -9.4453   36.4920 H   0  0  0  0  0  0  0  0  0  0  0  0
  -15.1050   -9.8435   37.9272 H   0  0  0  0  0  0  0  0  0  0  0  0
  -15.2318  -12.0382   37.4062 H   0  0  0  0  0  0  0  0  0  0  0  0
  -14.1554  -11.6385   36.0834 H   0  0  0  0  0  0  0  0  0  0  0  0
  -14.4220  -13.1302   33.6764 H   0  0  0  0  0  0  0  0  0  0  0  0
  -13.2005  -15.5391   33.4195 H   0  0  0  0  0  0  0  0  0  0  0  0
  -13.0572  -17.8667   34.4531 H   0  0  0  0  0  0  0  0  0  0  0  0
  -14.8904  -18.4980   36.0307 H   0  0  0  0  0  0  0  0  0  0  0  0
  -17.8513   -9.6691   36.3010 H   0  0  0  0  0  0  0  0  0  0  0  0
  -17.8244  -11.2171   35.5761 H   0  0  0  0  0  0  0  0  0  0  0  0
  -17.6432  -12.3695   37.7136 H   0  0  0  0  0  0  0  0  0  0  0  0
  -17.4643   -9.5641   38.9307 H   0  0  0  0  0  0  0  0  0  0  0  0
  -16.4578  -10.9768   39.3369 H   0  0  0  0  0  0  0  0  0  0  0  0
  -18.3614  -12.1442   40.2558 H   0  0  0  0  0  0  0  0  0  0  0  0
  -18.6214  -10.4950   40.8507 H   0  0  0  0  0  0  0  0  0  0  0  0
  -20.2436  -10.0478   39.1366 H   0  0  0  0  0  0  0  0  0  0  0  0
  -20.5106  -11.7943   39.3245 H   0  0  0  0  0  0  0  0  0  0  0  0
  -16.7237   -7.8978   35.1120 H   0  0  0  0  0  0  0  0  0  0  0  0
  1  2  2  0
  2  3  1  0
  3  4  2  0
  4  5  1  0
  5  6  1  0
  6  7  1  0
  7  8  1  0
  8  9  1  0
  9 10  2  0
 10 11  1  0
 11 12  1  0
 12 13  2  0
 13 14  1  0
 14 15  2  0
 15 16  1  0
 16 17  2  0
  7 18  1  0
 18 19  1  0
 19 20  1  0
 20 21  1  0
 21 22  1  0
 22 23  1  0
  5 24  2  0
 24  1  1  0
 17  9  1  0
 23 19  1  0
 16 11  1  0
  1 25  1  0
  2 26  1  0
  4 27  1  0
  6 28  1  0
  6 29  1  0
  8 30  1  0
  8 31  1  0
 10 32  1  0
 12 33  1  0
 13 34  1  0
 14 35  1  0
 18 36  1  0
 18 37  1  0
 19 38  1  0
 20 39  1  0
 20 40  1  0
 21 41  1  0
 21 42  1  0
 22 43  1  0
 22 44  1  0
 24 45  1  0
M  END
>  <Energy>  (762) 
111.37500580130938

>  <compound_id>  (762) 
13887

>  <target_id>  (762) 
1

>  <reference_id>  (762) 
7

>  <inspiration_ids>  (762) 
[107, 7]

>  <energy_score>  (762) 
-13.079080964257855

>  <distance_score>  (762) 
9.338286298803444

>  <path>  (762) 
/opt/xchem-fragalysis-2/maxwin/BulkDock/SCRATCH/511022/C13887-P7/C13887-P7.minimised.mol

>  <scratch_subdir>  (762) 
/opt/xchem-fragalysis-2/maxwin/BulkDock/SCRATCH/511022/C13887-P7

>  <fragmenstein_runtime>  (762) 
14.426646709442139

>  <fragmenstein_outcome>  (762) 
too moved

>  <fragmenstein_mode>  (762) 
expansion

>  <fragmenstein_error>  (762) 


$$$$
C54479-P107
     RDKit          3D

 28 30  0  0  0  0  0  0  0  0999 V2000
  -16.8782  -12.4702   37.8965 O   0  0  0  0  0  0  0  0  0  0  0  0
  -16.2163  -11.9058   36.7369 S   0  0  0  0  0  0  0  0  0  0  0  0
  -16.9726  -11.3561   35.6317 O   0  0  0  0  0  0  0  0  0  0  0  0
  -15.2693  -10.5846   37.3651 N   0  0  0  0  0  0  0  0  0  0  0  0
  -16.0492   -9.7531   38.3577 C   0  0  0  0  0  0  0  0  0  0  0  0
  -15.6522   -8.3035   38.4735 C   0  0  0  0  0  0  0  0  0  0  0  0
  -16.3090   -7.2975   37.5675 C   0  0  0  0  0  0  0  0  0  0  0  0
  -16.1711   -6.0067   37.5869 N   0  0  0  0  0  0  0  0  0  0  0  0
  -15.3915   -5.4995   38.5820 C   0  0  0  0  0  0  0  0  0  0  0  0
  -15.0398   -4.2522   38.8060 N   0  0  0  0  0  0  0  0  0  0  0  0
  -14.2274   -4.2806   39.9085 C   0  0  0  0  0  0  0  0  0  0  0  0
  -14.0695   -5.5657   40.3705 C   0  0  0  0  0  0  0  0  0  0  0  0
  -14.7870   -6.3473   39.5072 N   0  0  0  0  0  0  0  0  0  0  0  0
  -14.9252   -7.7323   39.4548 C   0  0  0  0  0  0  0  0  0  0  0  0
  -15.3342  -13.2499   36.0707 C   0  0  0  0  0  0  0  0  0  0  0  0
  -14.5413  -13.2167   34.8926 C   0  0  0  0  0  0  0  0  0  0  0  0
  -13.8715  -14.3320   34.5803 N   0  0  0  0  0  0  0  0  0  0  0  0
  -14.3580  -15.5438   35.6048 S   0  0  0  0  0  0  0  0  0  0  0  0
  -15.3724  -14.5470   36.5611 C   0  0  0  0  0  0  0  0  0  0  0  0
  -14.3875  -10.9576   37.7327 H   0  0  0  0  0  0  0  0  0  0  0  0
  -15.9415  -10.2364   39.3369 H   0  0  0  0  0  0  0  0  0  0  0  0
  -17.1158   -9.7836   38.1027 H   0  0  0  0  0  0  0  0  0  0  0  0
  -16.9711   -7.7298   36.7968 H   0  0  0  0  0  0  0  0  0  0  0  0
  -13.7963   -3.3720   40.3094 H   0  0  0  0  0  0  0  0  0  0  0  0
  -13.5039   -5.9738   41.1951 H   0  0  0  0  0  0  0  0  0  0  0  0
  -14.4379   -8.2993   40.2388 H   0  0  0  0  0  0  0  0  0  0  0  0
  -14.3976  -12.3553   34.2522 H   0  0  0  0  0  0  0  0  0  0  0  0
  -15.9314  -14.9404   37.3985 H   0  0  0  0  0  0  0  0  0  0  0  0
  1  2  2  0
  2  3  2  0
  2  4  1  0
  4  5  1  0
  5  6  1  0
  6  7  1  0
  7  8  2  0
  8  9  1  0
  9 10  2  0
 10 11  1  0
 11 12  2  0
 12 13  1  0
 13 14  1  0
  2 15  1  0
 15 16  1  0
 16 17  2  0
 17 18  1  0
 18 19  1  0
 14  6  2  0
 19 15  2  0
 13  9  1  0
  4 20  1  0
  5 21  1  0
  5 22  1  0
  7 23  1  0
 11 24  1  0
 12 25  1  0
 14 26  1  0
 16 27  1  0
 19 28  1  0
M  END
>  <Energy>  (763) 
-62.800597919477717

>  <compound_id>  (763) 
54479

>  <target_id>  (763) 
1

>  <reference_id>  (763) 
107

>  <inspiration_ids>  (763) 
[107, 7]

>  <energy_score>  (763) 
-44.69003817468965

>  <distance_score>  (763) 
9.494884719068827

>  <path>  (763) 
/opt/xchem-fragalysis-2/maxwin/BulkDock/SCRATCH/511022/C54479-P107/C54479-P107.minimised.mol

>  <scratch_subdir>  (763) 
/opt/xchem-fragalysis-2/maxwin/BulkDock/SCRATCH/511022/C54479-P107

>  <fragmenstein_runtime>  (763) 
8.395380020141602

>  <fragmenstein_outcome>  (763) 
too moved

>  <fragmenstein_mode>  (763) 
expansion

>  <fragmenstein_error>  (763) 


$$$$
C54479-P7
     RDKit          3D

 28 30  0  0  0  0  0  0  0  0999 V2000
  -14.7277   -9.9203   34.2408 O   0  0  0  0  0  0  0  0  0  0  0  0
  -15.7994  -10.2192   35.1605 S   0  0  0  0  0  0  0  0  0  0  0  0
  -17.1848   -9.9756   34.8145 O   0  0  0  0  0  0  0  0  0  0  0  0
  -15.4544   -9.2676   36.5585 N   0  0  0  0  0  0  0  0  0  0  0  0
  -16.1646   -7.9295   36.5222 C   0  0  0  0  0  0  0  0  0  0  0  0
  -15.5552   -6.8563   37.3775 C   0  0  0  0  0  0  0  0  0  0  0  0
  -15.1350   -7.1239   38.7867 C   0  0  0  0  0  0  0  0  0  0  0  0
  -14.6326   -6.2707   39.6275 N   0  0  0  0  0  0  0  0  0  0  0  0
  -14.4785   -4.9929   39.1818 C   0  0  0  0  0  0  0  0  0  0  0  0
  -13.9541   -3.9528   39.7948 N   0  0  0  0  0  0  0  0  0  0  0  0
  -14.0305   -2.9118   38.9110 C   0  0  0  0  0  0  0  0  0  0  0  0
  -14.5969   -3.3177   37.7285 C   0  0  0  0  0  0  0  0  0  0  0  0
  -14.8683   -4.6456   37.8950 N   0  0  0  0  0  0  0  0  0  0  0  0
  -15.4098   -5.5661   37.0112 C   0  0  0  0  0  0  0  0  0  0  0  0
  -15.7259  -11.9399   35.3585 C   0  0  0  0  0  0  0  0  0  0  0  0
  -15.1756  -12.8289   34.3851 C   0  0  0  0  0  0  0  0  0  0  0  0
  -15.2178  -14.1337   34.6617 N   0  0  0  0  0  0  0  0  0  0  0  0
  -16.1992  -14.3424   35.9874 S   0  0  0  0  0  0  0  0  0  0  0  0
  -16.3409  -12.6690   36.3547 C   0  0  0  0  0  0  0  0  0  0  0  0
  -14.4373   -9.1428   36.5636 H   0  0  0  0  0  0  0  0  0  0  0  0
  -17.1930   -8.1018   36.8617 H   0  0  0  0  0  0  0  0  0  0  0  0
  -16.2101   -7.5741   35.4860 H   0  0  0  0  0  0  0  0  0  0  0  0
  -15.2755   -8.1632   39.1302 H   0  0  0  0  0  0  0  0  0  0  0  0
  -13.6719   -1.9250   39.1745 H   0  0  0  0  0  0  0  0  0  0  0  0
  -14.8128   -2.7890   36.8154 H   0  0  0  0  0  0  0  0  0  0  0  0
  -15.6969   -5.1904   36.0377 H   0  0  0  0  0  0  0  0  0  0  0  0
  -14.7327  -12.5337   33.4436 H   0  0  0  0  0  0  0  0  0  0  0  0
  -16.9129  -12.3229   37.2043 H   0  0  0  0  0  0  0  0  0  0  0  0
  1  2  2  0
  2  3  2  0
  2  4  1  0
  4  5  1  0
  5  6  1  0
  6  7  1  0
  7  8  2  0
  8  9  1  0
  9 10  2  0
 10 11  1  0
 11 12  2  0
 12 13  1  0
 13 14  1  0
  2 15  1  0
 15 16  1  0
 16 17  2  0
 17 18  1  0
 18 19  1  0
 14  6  2  0
 19 15  2  0
 13  9  1  0
  4 20  1  0
  5 21  1  0
  5 22  1  0
  7 23  1  0
 11 24  1  0
 12 25  1  0
 14 26  1  0
 16 27  1  0
 19 28  1  0
M  END
>  <Energy>  (764) 
-65.914352876635149

>  <compound_id>  (764) 
54479

>  <target_id>  (764) 
1

>  <reference_id>  (764) 
7

>  <inspiration_ids>  (764) 
[107, 7]

>  <energy_score>  (764) 
-47.80379313184867

>  <distance_score>  (764) 
9.684889565546055

>  <path>  (764) 
/opt/xchem-fragalysis-2/maxwin/BulkDock/SCRATCH/511022/C54479-P7/C54479-P7.minimised.mol

>  <scratch_subdir>  (764) 
/opt/xchem-fragalysis-2/maxwin/BulkDock/SCRATCH/511022/C54479-P7

>  <fragmenstein_runtime>  (764) 
6.41189432144165

>  <fragmenstein_outcome>  (764) 
too moved

>  <fragmenstein_mode>  (764) 
expansion

>  <fragmenstein_error>  (764) 


$$$$
C28511-P107
     RDKit          3D

 31 33  0  0  0  0  0  0  0  0999 V2000
  -16.2791  -13.7038   34.6026 O   0  0  0  0  0  0  0  0  0  0  0  0
  -14.9615  -13.8105   35.1803 S   0  0  0  0  0  0  0  0  0  0  0  0
  -13.7925  -13.3358   34.4784 O   0  0  0  0  0  0  0  0  0  0  0  0
  -15.0093  -12.8920   36.6683 N   0  0  0  0  0  0  0  0  0  0  0  0
  -15.7278  -11.5718   36.4944 C   0  0  0  0  0  0  0  0  0  0  0  0
  -15.4420  -10.4909   37.5181 C   0  0  0  0  0  0  0  0  0  0  0  0
  -16.4602   -9.3698   37.5608 C   0  0  0  0  0  0  0  0  0  0  0  0
  -16.3853   -8.2501   38.2130 N   0  0  0  0  0  0  0  0  0  0  0  0
  -15.2937   -8.0967   39.0097 C   0  0  0  0  0  0  0  0  0  0  0  0
  -14.9344   -7.0530   39.7280 N   0  0  0  0  0  0  0  0  0  0  0  0
  -13.7717   -7.4119   40.3569 C   0  0  0  0  0  0  0  0  0  0  0  0
  -13.3938   -8.6859   40.0013 C   0  0  0  0  0  0  0  0  0  0  0  0
  -14.3473   -9.1145   39.1157 N   0  0  0  0  0  0  0  0  0  0  0  0
  -14.4137  -10.2883   38.3635 C   0  0  0  0  0  0  0  0  0  0  0  0
  -14.5871  -15.5040   35.5312 C   0  0  0  0  0  0  0  0  0  0  0  0
  -13.5998  -16.1718   34.7823 C   0  0  0  0  0  0  0  0  0  0  0  0
  -13.2863  -17.4959   35.0695 C   0  0  0  0  0  0  0  0  0  0  0  0
  -13.9849  -18.1090   36.0843 C   0  0  0  0  0  0  0  0  0  0  0  0
  -14.9642  -17.5081   36.7995 N   0  0  0  0  0  0  0  0  0  0  0  0
  -15.2555  -16.2118   36.5013 C   0  0  0  0  0  0  0  0  0  0  0  0
  -14.0124  -12.6859   36.8494 H   0  0  0  0  0  0  0  0  0  0  0  0
  -16.7993  -11.8057   36.5216 H   0  0  0  0  0  0  0  0  0  0  0  0
  -15.4946  -11.1738   35.5041 H   0  0  0  0  0  0  0  0  0  0  0  0
  -17.3509   -9.5298   36.9283 H   0  0  0  0  0  0  0  0  0  0  0  0
  -13.2620   -6.7298   41.0258 H   0  0  0  0  0  0  0  0  0  0  0  0
  -12.5428   -9.2918   40.2755 H   0  0  0  0  0  0  0  0  0  0  0  0
  -13.5872  -10.9787   38.4676 H   0  0  0  0  0  0  0  0  0  0  0  0
  -13.0727  -15.6694   33.9718 H   0  0  0  0  0  0  0  0  0  0  0  0
  -12.5066  -18.0277   34.5383 H   0  0  0  0  0  0  0  0  0  0  0  0
  -13.7540  -19.1232   36.3700 H   0  0  0  0  0  0  0  0  0  0  0  0
  -16.0592  -15.7674   37.0822 H   0  0  0  0  0  0  0  0  0  0  0  0
  1  2  2  0
  2  3  2  0
  2  4  1  0
  4  5  1  0
  5  6  1  0
  6  7  1  0
  7  8  2  0
  8  9  1  0
  9 10  2  0
 10 11  1  0
 11 12  2  0
 12 13  1  0
 13 14  1  0
  2 15  1  0
 15 16  2  0
 16 17  1  0
 17 18  2  0
 18 19  1  0
 19 20  2  0
 14  6  2  0
 20 15  1  0
 13  9  1  0
  4 21  1  0
  5 22  1  0
  5 23  1  0
  7 24  1  0
 11 25  1  0
 12 26  1  0
 14 27  1  0
 16 28  1  0
 17 29  1  0
 18 30  1  0
 20 31  1  0
M  END
>  <Energy>  (765) 
-35.551622605552595

>  <compound_id>  (765) 
28511

>  <target_id>  (765) 
1

>  <reference_id>  (765) 
107

>  <inspiration_ids>  (765) 
[107, 7]

>  <energy_score>  (765) 
-28.59677655271961

>  <distance_score>  (765) 
8.89681804396391

>  <path>  (765) 
/opt/xchem-fragalysis-2/maxwin/BulkDock/SCRATCH/511022/C28511-P107/C28511-P107.minimised.mol

>  <scratch_subdir>  (765) 
/opt/xchem-fragalysis-2/maxwin/BulkDock/SCRATCH/511022/C28511-P107

>  <fragmenstein_runtime>  (765) 
7.00742506980896

>  <fragmenstein_outcome>  (765) 
too moved

>  <fragmenstein_mode>  (765) 
expansion

>  <fragmenstein_error>  (765) 


$$$$
C28511-P7
     RDKit          3D

 31 33  0  0  0  0  0  0  0  0999 V2000
  -16.3006  -13.2526   33.9459 O   0  0  0  0  0  0  0  0  0  0  0  0
  -15.1363  -13.6063   34.7157 S   0  0  0  0  0  0  0  0  0  0  0  0
  -13.7797  -13.5175   34.2297 O   0  0  0  0  0  0  0  0  0  0  0  0
  -15.2209  -12.4747   36.0648 N   0  0  0  0  0  0  0  0  0  0  0  0
  -14.4974  -11.1554   35.6929 C   0  0  0  0  0  0  0  0  0  0  0  0
  -14.8590   -9.9581   36.5366 C   0  0  0  0  0  0  0  0  0  0  0  0
  -14.1799   -9.7368   37.8574 C   0  0  0  0  0  0  0  0  0  0  0  0
  -14.2419   -8.6736   38.6033 N   0  0  0  0  0  0  0  0  0  0  0  0
  -14.9925   -7.6375   38.1328 C   0  0  0  0  0  0  0  0  0  0  0  0
  -15.1673   -6.4321   38.6389 N   0  0  0  0  0  0  0  0  0  0  0  0
  -15.9733   -5.7623   37.7582 C   0  0  0  0  0  0  0  0  0  0  0  0
  -16.3054   -6.5639   36.6929 C   0  0  0  0  0  0  0  0  0  0  0  0
  -15.6623   -7.7526   36.9212 N   0  0  0  0  0  0  0  0  0  0  0  0
  -15.5876   -8.8973   36.1325 C   0  0  0  0  0  0  0  0  0  0  0  0
  -15.2560  -15.3127   35.2114 C   0  0  0  0  0  0  0  0  0  0  0  0
  -16.2483  -15.8321   36.0235 C   0  0  0  0  0  0  0  0  0  0  0  0
  -16.3250  -17.2260   36.1789 C   0  0  0  0  0  0  0  0  0  0  0  0
  -15.4198  -18.0460   35.5164 C   0  0  0  0  0  0  0  0  0  0  0  0
  -14.4409  -17.5700   34.7257 N   0  0  0  0  0  0  0  0  0  0  0  0
  -14.3641  -16.2171   34.6086 C   0  0  0  0  0  0  0  0  0  0  0  0
  -16.2199  -12.2633   36.1588 H   0  0  0  0  0  0  0  0  0  0  0  0
  -13.4190  -11.3349   35.7647 H   0  0  0  0  0  0  0  0  0  0  0  0
  -14.7297  -10.9235   34.6455 H   0  0  0  0  0  0  0  0  0  0  0  0
  -13.5679  -10.5842   38.2141 H   0  0  0  0  0  0  0  0  0  0  0  0
  -16.2700   -4.7368   37.9383 H   0  0  0  0  0  0  0  0  0  0  0  0
  -16.9005   -6.3866   35.8099 H   0  0  0  0  0  0  0  0  0  0  0  0
  -16.0849   -8.8544   35.1715 H   0  0  0  0  0  0  0  0  0  0  0  0
  -16.9983  -15.1925   36.4802 H   0  0  0  0  0  0  0  0  0  0  0  0
  -17.1119  -17.6648   36.7863 H   0  0  0  0  0  0  0  0  0  0  0  0
  -15.4789  -19.1265   35.5933 H   0  0  0  0  0  0  0  0  0  0  0  0
  -13.5774  -15.8875   33.9275 H   0  0  0  0  0  0  0  0  0  0  0  0
  1  2  2  0
  2  3  2  0
  2  4  1  0
  4  5  1  0
  5  6  1  0
  6  7  1  0
  7  8  2  0
  8  9  1  0
  9 10  2  0
 10 11  1  0
 11 12  2  0
 12 13  1  0
 13 14  1  0
  2 15  1  0
 15 16  2  0
 16 17  1  0
 17 18  2  0
 18 19  1  0
 19 20  2  0
 14  6  2  0
 20 15  1  0
 13  9  1  0
  4 21  1  0
  5 22  1  0
  5 23  1  0
  7 24  1  0
 11 25  1  0
 12 26  1  0
 14 27  1  0
 16 28  1  0
 17 29  1  0
 18 30  1  0
 20 31  1  0
M  END
>  <Energy>  (766) 
-30.849510906595441

>  <compound_id>  (766) 
28511

>  <target_id>  (766) 
1

>  <reference_id>  (766) 
7

>  <inspiration_ids>  (766) 
[107, 7]

>  <energy_score>  (766) 
-23.89466485376579

>  <distance_score>  (766) 
8.902827654573464

>  <path>  (766) 
/opt/xchem-fragalysis-2/maxwin/BulkDock/SCRATCH/511022/C28511-P7/C28511-P7.minimised.mol

>  <scratch_subdir>  (766) 
/opt/xchem-fragalysis-2/maxwin/BulkDock/SCRATCH/511022/C28511-P7

>  <fragmenstein_runtime>  (766) 
8.779270648956299

>  <fragmenstein_outcome>  (766) 
too moved

>  <fragmenstein_mode>  (766) 
expansion

>  <fragmenstein_error>  (766) 


$$$$
C28512-P107
     RDKit          3D

 34 36  0  0  0  0  0  0  0  0999 V2000
  -16.5973  -12.4573   35.5125 C   0  0  0  0  0  0  0  0  0  0  0  0
  -15.4419  -12.8417   36.4367 C   0  0  0  0  0  0  0  0  0  0  0  0
  -15.5478  -12.1136   37.8315 C   0  0  0  0  0  0  0  0  0  0  0  0
  -15.3696  -10.6140   38.0392 C   0  0  0  0  0  0  0  0  0  0  0  0
  -14.2742  -10.1170   38.7612 C   0  0  0  0  0  0  0  0  0  0  0  0
  -14.2659   -8.7985   39.2182 C   0  0  0  0  0  0  0  0  0  0  0  0
  -15.3251   -7.9781   38.8727 C   0  0  0  0  0  0  0  0  0  0  0  0
  -16.3579   -8.3848   38.1071 N   0  0  0  0  0  0  0  0  0  0  0  0
  -16.3741   -9.6956   37.7448 C   0  0  0  0  0  0  0  0  0  0  0  0
  -15.4577  -14.3494   36.6175 N   0  0  0  0  0  0  0  0  0  0  0  0
  -14.8220  -15.3151   35.8121 C   0  0  0  0  0  0  0  0  0  0  0  0
  -14.0096  -15.0044   34.7917 C   0  0  0  0  0  0  0  0  0  0  0  0
  -13.3869  -16.1163   34.0445 C   0  0  0  0  0  0  0  0  0  0  0  0
  -13.6260  -17.3791   34.2103 N   0  0  0  0  0  0  0  0  0  0  0  0
  -14.4994  -17.6923   35.1987 C   0  0  0  0  0  0  0  0  0  0  0  0
  -14.9850  -18.8783   35.4916 N   0  0  0  0  0  0  0  0  0  0  0  0
  -15.8228  -18.6834   36.5512 C   0  0  0  0  0  0  0  0  0  0  0  0
  -15.8664  -17.3583   36.9089 C   0  0  0  0  0  0  0  0  0  0  0  0
  -15.0617  -16.7012   36.0092 N   0  0  0  0  0  0  0  0  0  0  0  0
  -16.5856  -11.3869   35.2903 H   0  0  0  0  0  0  0  0  0  0  0  0
  -17.5650  -12.7057   35.9614 H   0  0  0  0  0  0  0  0  0  0  0  0
  -16.5286  -12.9911   34.5584 H   0  0  0  0  0  0  0  0  0  0  0  0
  -14.5125  -12.5276   35.9570 H   0  0  0  0  0  0  0  0  0  0  0  0
  -16.5241  -12.3746   38.2672 H   0  0  0  0  0  0  0  0  0  0  0  0
  -14.8332  -12.6165   38.4988 H   0  0  0  0  0  0  0  0  0  0  0  0
  -13.4568  -10.7823   39.0354 H   0  0  0  0  0  0  0  0  0  0  0  0
  -13.4497   -8.4254   39.8276 H   0  0  0  0  0  0  0  0  0  0  0  0
  -15.3663   -6.9445   39.2033 H   0  0  0  0  0  0  0  0  0  0  0  0
  -17.2787  -10.0024   37.2261 H   0  0  0  0  0  0  0  0  0  0  0  0
  -16.3605  -14.6820   36.9591 H   0  0  0  0  0  0  0  0  0  0  0  0
  -13.8461  -13.9962   34.4516 H   0  0  0  0  0  0  0  0  0  0  0  0
  -12.6942  -15.7865   33.2553 H   0  0  0  0  0  0  0  0  0  0  0  0
  -16.3564  -19.5090   37.0038 H   0  0  0  0  0  0  0  0  0  0  0  0
  -16.4139  -16.8363   37.6777 H   0  0  0  0  0  0  0  0  0  0  0  0
  1  2  1  0
  2  3  1  0
  3  4  1  0
  4  5  2  0
  5  6  1  0
  6  7  2  0
  7  8  1  0
  8  9  2  0
  2 10  1  0
 10 11  1  0
 11 12  2  0
 12 13  1  0
 13 14  2  0
 14 15  1  0
 15 16  2  0
 16 17  1  0
 17 18  2  0
 18 19  1  0
  9  4  1  0
 19 11  1  0
 19 15  1  0
  1 20  1  0
  1 21  1  0
  1 22  1  0
  2 23  1  0
  3 24  1  0
  3 25  1  0
  5 26  1  0
  6 27  1  0
  7 28  1  0
  9 29  1  0
 10 30  1  0
 12 31  1  0
 13 32  1  0
 17 33  1  0
 18 34  1  0
M  END
>  <Energy>  (767) 
83.886708856887637

>  <compound_id>  (767) 
28512

>  <target_id>  (767) 
1

>  <reference_id>  (767) 
107

>  <inspiration_ids>  (767) 
[107, 7]

>  <energy_score>  (767) 
-33.94282182394761

>  <distance_score>  (767) 
9.649766902013639

>  <path>  (767) 
/opt/xchem-fragalysis-2/maxwin/BulkDock/SCRATCH/511022/C28512-P107/C28512-P107.minimised.mol

>  <scratch_subdir>  (767) 
/opt/xchem-fragalysis-2/maxwin/BulkDock/SCRATCH/511022/C28512-P107

>  <fragmenstein_runtime>  (767) 
8.714329242706299

>  <fragmenstein_outcome>  (767) 
too moved

>  <fragmenstein_mode>  (767) 
expansion

>  <fragmenstein_error>  (767) 


$$$$
C28512-P7
     RDKit          3D

 34 36  0  0  0  0  0  0  0  0999 V2000
  -16.2079  -14.0206   36.4547 C   0  0  0  0  0  0  0  0  0  0  0  0
  -15.5423  -13.8574   35.0908 C   0  0  0  0  0  0  0  0  0  0  0  0
  -14.8209  -12.4109   34.8976 C   0  0  0  0  0  0  0  0  0  0  0  0
  -15.1054  -11.1592   35.7122 C   0  0  0  0  0  0  0  0  0  0  0  0
  -14.1158  -10.5477   36.4957 C   0  0  0  0  0  0  0  0  0  0  0  0
  -14.3821   -9.3558   37.1726 C   0  0  0  0  0  0  0  0  0  0  0  0
  -15.6193   -8.7669   37.0029 C   0  0  0  0  0  0  0  0  0  0  0  0
  -16.5991   -9.3109   36.2523 N   0  0  0  0  0  0  0  0  0  0  0  0
  -16.3236  -10.4979   35.6544 C   0  0  0  0  0  0  0  0  0  0  0  0
  -14.5436  -14.9527   34.7399 N   0  0  0  0  0  0  0  0  0  0  0  0
  -14.3755  -16.3575   34.9391 C   0  0  0  0  0  0  0  0  0  0  0  0
  -13.1336  -16.8363   34.7196 C   0  0  0  0  0  0  0  0  0  0  0  0
  -12.9026  -18.2941   34.7838 C   0  0  0  0  0  0  0  0  0  0  0  0
  -13.8159  -19.1904   34.9360 N   0  0  0  0  0  0  0  0  0  0  0  0
  -15.0715  -18.7211   35.1499 C   0  0  0  0  0  0  0  0  0  0  0  0
  -16.1723  -19.4341   35.2434 N   0  0  0  0  0  0  0  0  0  0  0  0
  -17.1606  -18.5540   35.5446 C   0  0  0  0  0  0  0  0  0  0  0  0
  -16.6769  -17.2705   35.5806 C   0  0  0  0  0  0  0  0  0  0  0  0
  -15.3499  -17.3416   35.2498 N   0  0  0  0  0  0  0  0  0  0  0  0
  -15.9080  -14.9323   36.9767 H   0  0  0  0  0  0  0  0  0  0  0  0
  -17.2964  -14.0565   36.3308 H   0  0  0  0  0  0  0  0  0  0  0  0
  -16.0180  -13.1821   37.1295 H   0  0  0  0  0  0  0  0  0  0  0  0
  -16.3319  -13.9003   34.3351 H   0  0  0  0  0  0  0  0  0  0  0  0
  -13.7447  -12.5850   34.9672 H   0  0  0  0  0  0  0  0  0  0  0  0
  -14.9685  -12.1384   33.8422 H   0  0  0  0  0  0  0  0  0  0  0  0
  -13.1333  -11.0039   36.6009 H   0  0  0  0  0  0  0  0  0  0  0  0
  -13.6427   -8.9110   37.8266 H   0  0  0  0  0  0  0  0  0  0  0  0
  -15.8707   -7.8318   37.4935 H   0  0  0  0  0  0  0  0  0  0  0  0
  -17.1546  -10.9317   35.1106 H   0  0  0  0  0  0  0  0  0  0  0  0
  -14.2440  -14.7597   33.7642 H   0  0  0  0  0  0  0  0  0  0  0  0
  -12.2925  -16.2134   34.4537 H   0  0  0  0  0  0  0  0  0  0  0  0
  -11.8631  -18.6125   34.6336 H   0  0  0  0  0  0  0  0  0  0  0  0
  -18.1792  -18.8803   35.7116 H   0  0  0  0  0  0  0  0  0  0  0  0
  -17.1906  -16.3411   35.7523 H   0  0  0  0  0  0  0  0  0  0  0  0
  1  2  1  0
  2  3  1  0
  3  4  1  0
  4  5  2  0
  5  6  1  0
  6  7  2  0
  7  8  1  0
  8  9  2  0
  2 10  1  0
 10 11  1  0
 11 12  2  0
 12 13  1  0
 13 14  2  0
 14 15  1  0
 15 16  2  0
 16 17  1  0
 17 18  2  0
 18 19  1  0
  9  4  1  0
 19 11  1  0
 19 15  1  0
  1 20  1  0
  1 21  1  0
  1 22  1  0
  2 23  1  0
  3 24  1  0
  3 25  1  0
  5 26  1  0
  6 27  1  0
  7 28  1  0
  9 29  1  0
 10 30  1  0
 12 31  1  0
 13 32  1  0
 17 33  1  0
 18 34  1  0
M  END
>  <Energy>  (768) 
109.79956737851379

>  <compound_id>  (768) 
28512

>  <target_id>  (768) 
1

>  <reference_id>  (768) 
7

>  <inspiration_ids>  (768) 
[107, 7]

>  <energy_score>  (768) 
-8.029963302323921

>  <distance_score>  (768) 
9.374037696850943

>  <path>  (768) 
/opt/xchem-fragalysis-2/maxwin/BulkDock/SCRATCH/511022/C28512-P7/C28512-P7.minimised.mol

>  <scratch_subdir>  (768) 
/opt/xchem-fragalysis-2/maxwin/BulkDock/SCRATCH/511022/C28512-P7

>  <fragmenstein_runtime>  (768) 
7.366981744766235

>  <fragmenstein_outcome>  (768) 
too moved

>  <fragmenstein_mode>  (768) 
expansion

>  <fragmenstein_error>  (768) 


$$$$
C18942-P107
     RDKit          3D

 47 49  0  0  0  0  0  0  0  0999 V2000
   -4.5968  -14.6706   34.9676 C   0  0  0  0  0  0  0  0  0  0  0  0
   -6.1643  -15.5800   34.4351 C   0  0  0  0  0  0  0  0  0  0  0  0
   -7.3174  -15.6559   33.4436 C   0  0  0  0  0  0  0  0  0  0  0  0
   -7.8955  -14.2984   32.5875 C   0  0  0  0  0  0  0  0  0  0  0  0
   -9.1378  -12.9581   33.2862 C   0  0  0  0  0  0  0  0  0  0  0  0
   -8.8641  -11.4368   34.7653 C   0  0  0  0  0  0  0  0  0  0  0  0
  -10.4373  -10.5359   35.6013 N   0  0  0  0  0  0  0  0  0  0  0  0
  -11.2399   -9.3746   34.9820 C   0  0  0  0  0  0  0  0  0  0  0  0
  -11.8804   -7.4552   35.1691 C   0  0  0  0  0  0  0  0  0  0  0  0
  -13.2771   -6.3868   35.2755 C   0  0  0  0  0  0  0  0  0  0  0  0
  -12.7388   -5.1521   35.4833 C   0  0  0  0  0  0  0  0  0  0  0  0
  -11.5082   -5.2289   35.1140 O   0  0  0  0  0  0  0  0  0  0  0  0
  -11.0752   -6.4330   34.7044 N   0  0  0  0  0  0  0  0  0  0  0  0
  -10.3728  -14.5533   33.5385 N   0  0  0  0  0  0  0  0  0  0  0  0
  -10.2292  -15.8600   34.4870 C   0  0  0  0  0  0  0  0  0  0  0  0
   -9.3055  -16.2200   35.1998 O   0  0  0  0  0  0  0  0  0  0  0  0
  -11.4426  -16.8017   34.6771 C   0  0  0  0  0  0  0  0  0  0  0  0
  -12.8140  -16.5592   34.7153 C   0  0  0  0  0  0  0  0  0  0  0  0
  -13.4011  -17.8082   34.8074 N   0  0  0  0  0  0  0  0  0  0  0  0
  -14.7416  -18.1834   34.8048 C   0  0  0  0  0  0  0  0  0  0  0  0
  -15.0669  -19.4575   34.5306 C   0  0  0  0  0  0  0  0  0  0  0  0
  -13.9089  -20.3616   34.2699 C   0  0  0  0  0  0  0  0  0  0  0  0
  -12.6600  -20.0533   34.4264 N   0  0  0  0  0  0  0  0  0  0  0  0
  -12.3933  -18.7550   34.7585 C   0  0  0  0  0  0  0  0  0  0  0  0
  -11.2499  -18.1535   34.9760 N   0  0  0  0  0  0  0  0  0  0  0  0
   -3.7236  -14.6811   34.3110 H   0  0  0  0  0  0  0  0  0  0  0  0
   -4.3642  -14.9738   35.9752 H   0  0  0  0  0  0  0  0  0  0  0  0
   -4.4985  -13.6242   35.1926 H   0  0  0  0  0  0  0  0  0  0  0  0
   -5.6414  -16.3319   33.8357 H   0  0  0  0  0  0  0  0  0  0  0  0
   -6.6497  -15.9683   35.3414 H   0  0  0  0  0  0  0  0  0  0  0  0
   -8.1223  -16.3073   33.7184 H   0  0  0  0  0  0  0  0  0  0  0  0
   -6.9354  -16.4813   32.8428 H   0  0  0  0  0  0  0  0  0  0  0  0
   -8.6518  -14.7986   32.0395 H   0  0  0  0  0  0  0  0  0  0  0  0
   -7.2289  -13.9604   31.7763 H   0  0  0  0  0  0  0  0  0  0  0  0
   -9.4735  -12.3158   32.5139 H   0  0  0  0  0  0  0  0  0  0  0  0
   -7.9069  -10.9326   34.7459 H   0  0  0  0  0  0  0  0  0  0  0  0
   -8.9848  -11.4451   35.8138 H   0  0  0  0  0  0  0  0  0  0  0  0
  -11.1590  -11.2478   35.4522 H   0  0  0  0  0  0  0  0  0  0  0  0
  -11.0384   -9.4917   33.9273 H   0  0  0  0  0  0  0  0  0  0  0  0
  -11.9972   -9.8534   35.6473 H   0  0  0  0  0  0  0  0  0  0  0  0
  -14.2710   -6.6085   35.6128 H   0  0  0  0  0  0  0  0  0  0  0  0
  -13.0102   -4.2449   35.9977 H   0  0  0  0  0  0  0  0  0  0  0  0
  -11.3003  -14.5215   33.1526 H   0  0  0  0  0  0  0  0  0  0  0  0
  -13.3983  -15.6587   34.6081 H   0  0  0  0  0  0  0  0  0  0  0  0
  -15.4745  -17.4036   34.9695 H   0  0  0  0  0  0  0  0  0  0  0  0
  -16.0725  -19.8501   34.4804 H   0  0  0  0  0  0  0  0  0  0  0  0
  -14.1750  -21.3848   33.9523 H   0  0  0  0  0  0  0  0  0  0  0  0
  1  2  1  0
  2  3  1  0
  3  4  1  0
  4  5  1  0
  5  6  1  0
  6  7  1  0
  7  8  1  0
  8  9  1  0
  9 10  1  0
 10 11  2  0
 11 12  1  0
 12 13  1  0
  5 14  1  0
 14 15  1  0
 15 16  2  0
 15 17  1  0
 17 18  2  0
 18 19  1  0
 19 20  1  0
 20 21  2  0
 21 22  1  0
 22 23  2  0
 23 24  1  0
 24 25  2  0
 13  9  2  0
 25 17  1  0
 24 19  1  0
  1 26  1  0
  1 27  1  0
  1 28  1  0
  2 29  1  0
  2 30  1  0
  3 31  1  0
  3 32  1  0
  4 33  1  0
  4 34  1  0
  5 35  1  0
  6 36  1  0
  6 37  1  0
  7 38  1  0
  8 39  1  0
  8 40  1  0
 10 41  1  0
 11 42  1  0
 14 43  1  0
 18 44  1  0
 20 45  1  0
 21 46  1  0
 22 47  1  0
M  END
>  <Energy>  (769) 
787.72730848376273

>  <compound_id>  (769) 
18942

>  <target_id>  (769) 
1

>  <reference_id>  (769) 
107

>  <inspiration_ids>  (769) 
[107, 7]

>  <energy_score>  (769) 
675.5108479627061

>  <distance_score>  (769) 
7.020126822999877

>  <path>  (769) 
/opt/xchem-fragalysis-2/maxwin/BulkDock/SCRATCH/511022/C18942-P107/C18942-P107.minimised.mol

>  <scratch_subdir>  (769) 
/opt/xchem-fragalysis-2/maxwin/BulkDock/SCRATCH/511022/C18942-P107

>  <fragmenstein_runtime>  (769) 
15.934392213821411

>  <fragmenstein_outcome>  (769) 
too moved

>  <fragmenstein_mode>  (769) 
expansion

>  <fragmenstein_error>  (769) 


$$$$
C18942-P7
     RDKit          3D

 47 49  0  0  0  0  0  0  0  0999 V2000
  -17.0899  -13.2357   39.8250 C   0  0  0  0  0  0  0  0  0  0  0  0
  -18.3149  -13.7713   39.0988 C   0  0  0  0  0  0  0  0  0  0  0  0
  -18.2084  -13.6708   37.5746 C   0  0  0  0  0  0  0  0  0  0  0  0
  -17.1388  -14.5988   36.9845 C   0  0  0  0  0  0  0  0  0  0  0  0
  -17.0476  -14.5259   35.4396 C   0  0  0  0  0  0  0  0  0  0  0  0
  -16.0064  -13.4741   34.9202 C   0  0  0  0  0  0  0  0  0  0  0  0
  -16.0704  -12.1714   35.6164 N   0  0  0  0  0  0  0  0  0  0  0  0
  -15.0851  -11.1890   35.1185 C   0  0  0  0  0  0  0  0  0  0  0  0
  -15.1820   -9.9042   35.9171 C   0  0  0  0  0  0  0  0  0  0  0  0
  -14.5281   -9.5697   37.1325 C   0  0  0  0  0  0  0  0  0  0  0  0
  -14.9763   -8.3102   37.4320 C   0  0  0  0  0  0  0  0  0  0  0  0
  -15.8153   -7.8872   36.4573 O   0  0  0  0  0  0  0  0  0  0  0  0
  -15.9593   -8.8876   35.5069 N   0  0  0  0  0  0  0  0  0  0  0  0
  -16.8255  -15.8957   34.9475 N   0  0  0  0  0  0  0  0  0  0  0  0
  -17.7511  -16.9500   34.6552 C   0  0  0  0  0  0  0  0  0  0  0  0
  -18.9459  -16.9621   34.6597 O   0  0  0  0  0  0  0  0  0  0  0  0
  -17.0540  -18.2426   34.4046 C   0  0  0  0  0  0  0  0  0  0  0  0
  -17.6706  -19.4760   34.2766 C   0  0  0  0  0  0  0  0  0  0  0  0
  -16.6723  -20.3983   34.1522 N   0  0  0  0  0  0  0  0  0  0  0  0
  -16.7403  -21.7785   34.0624 C   0  0  0  0  0  0  0  0  0  0  0  0
  -15.6046  -22.4779   33.9739 C   0  0  0  0  0  0  0  0  0  0  0  0
  -14.3619  -21.6639   33.9168 C   0  0  0  0  0  0  0  0  0  0  0  0
  -14.2904  -20.3705   34.0184 N   0  0  0  0  0  0  0  0  0  0  0  0
  -15.4697  -19.7058   34.1627 C   0  0  0  0  0  0  0  0  0  0  0  0
  -15.6782  -18.4023   34.2900 N   0  0  0  0  0  0  0  0  0  0  0  0
  -16.2063  -13.8507   39.6321 H   0  0  0  0  0  0  0  0  0  0  0  0
  -17.2642  -13.2377   40.9058 H   0  0  0  0  0  0  0  0  0  0  0  0
  -16.8696  -12.2078   39.5195 H   0  0  0  0  0  0  0  0  0  0  0  0
  -19.1899  -13.1956   39.4236 H   0  0  0  0  0  0  0  0  0  0  0  0
  -18.4920  -14.8114   39.3958 H   0  0  0  0  0  0  0  0  0  0  0  0
  -18.0244  -12.6286   37.2995 H   0  0  0  0  0  0  0  0  0  0  0  0
  -19.1820  -13.9400   37.1462 H   0  0  0  0  0  0  0  0  0  0  0  0
  -17.3917  -15.6215   37.2958 H   0  0  0  0  0  0  0  0  0  0  0  0
  -16.1585  -14.3913   37.4210 H   0  0  0  0  0  0  0  0  0  0  0  0
  -18.0346  -14.2403   35.0534 H   0  0  0  0  0  0  0  0  0  0  0  0
  -15.0017  -13.8938   35.0232 H   0  0  0  0  0  0  0  0  0  0  0  0
  -16.1749  -13.3280   33.8463 H   0  0  0  0  0  0  0  0  0  0  0  0
  -16.9940  -11.7578   35.4676 H   0  0  0  0  0  0  0  0  0  0  0  0
  -14.0705  -11.5911   35.2224 H   0  0  0  0  0  0  0  0  0  0  0  0
  -15.2591  -10.9790   34.0565 H   0  0  0  0  0  0  0  0  0  0  0  0
  -13.8497  -10.1811   37.7101 H   0  0  0  0  0  0  0  0  0  0  0  0
  -14.8095   -7.6185   38.2436 H   0  0  0  0  0  0  0  0  0  0  0  0
  -15.8782  -16.2704   34.9236 H   0  0  0  0  0  0  0  0  0  0  0  0
  -18.7151  -19.7535   34.3105 H   0  0  0  0  0  0  0  0  0  0  0  0
  -17.7175  -22.2408   34.1031 H   0  0  0  0  0  0  0  0  0  0  0  0
  -15.5350  -23.5525   33.9549 H   0  0  0  0  0  0  0  0  0  0  0  0
  -13.4247  -22.2364   33.8223 H   0  0  0  0  0  0  0  0  0  0  0  0
  1  2  1  0
  2  3  1  0
  3  4  1  0
  4  5  1  0
  5  6  1  0
  6  7  1  0
  7  8  1  0
  8  9  1  0
  9 10  1  0
 10 11  2  0
 11 12  1  0
 12 13  1  0
  5 14  1  0
 14 15  1  0
 15 16  2  0
 15 17  1  0
 17 18  2  0
 18 19  1  0
 19 20  1  0
 20 21  2  0
 21 22  1  0
 22 23  2  0
 23 24  1  0
 24 25  2  0
 13  9  2  0
 25 17  1  0
 24 19  1  0
  1 26  1  0
  1 27  1  0
  1 28  1  0
  2 29  1  0
  2 30  1  0
  3 31  1  0
  3 32  1  0
  4 33  1  0
  4 34  1  0
  5 35  1  0
  6 36  1  0
  6 37  1  0
  7 38  1  0
  8 39  1  0
  8 40  1  0
 10 41  1  0
 11 42  1  0
 14 43  1  0
 18 44  1  0
 20 45  1  0
 21 46  1  0
 22 47  1  0
M  END
>  <Energy>  (770) 
62.460310708063496

>  <compound_id>  (770) 
18942

>  <target_id>  (770) 
1

>  <reference_id>  (770) 
7

>  <inspiration_ids>  (770) 
[107, 7]

>  <energy_score>  (770) 
-49.75614981298611

>  <distance_score>  (770) 
7.840632282878342

>  <path>  (770) 
/opt/xchem-fragalysis-2/maxwin/BulkDock/SCRATCH/511022/C18942-P7/C18942-P7.minimised.mol

>  <scratch_subdir>  (770) 
/opt/xchem-fragalysis-2/maxwin/BulkDock/SCRATCH/511022/C18942-P7

>  <fragmenstein_runtime>  (770) 
20.362948894500732

>  <fragmenstein_outcome>  (770) 
too moved

>  <fragmenstein_mode>  (770) 
expansion

>  <fragmenstein_error>  (770) 


$$$$
C37810-P107
     RDKit          3D

 38 41  0  0  0  0  0  0  0  0999 V2000
  -20.9695  -10.4343   38.4582 C   0  0  0  0  0  0  0  0  0  0  0  0
  -20.8230   -9.9369   37.1656 C   0  0  0  0  0  0  0  0  0  0  0  0
  -19.5821  -10.0012   36.5284 C   0  0  0  0  0  0  0  0  0  0  0  0
  -18.4670  -10.5556   37.1791 C   0  0  0  0  0  0  0  0  0  0  0  0
  -17.1408  -10.6257   36.4405 C   0  0  0  0  0  0  0  0  0  0  0  0
  -15.9927  -10.7526   37.3229 N   0  0  0  0  0  0  0  0  0  0  0  0
  -14.9716  -11.7910   36.9655 C   0  0  0  0  0  0  0  0  0  0  0  0
  -15.1910  -13.2181   36.3190 C   0  0  0  0  0  0  0  0  0  0  0  0
  -15.7827  -14.3641   36.8392 C   0  0  0  0  0  0  0  0  0  0  0  0
  -15.2326  -15.4348   36.1538 N   0  0  0  0  0  0  0  0  0  0  0  0
  -15.3543  -16.8080   36.3725 C   0  0  0  0  0  0  0  0  0  0  0  0
  -14.5793  -17.6625   35.6877 C   0  0  0  0  0  0  0  0  0  0  0  0
  -13.6201  -17.0160   34.7521 C   0  0  0  0  0  0  0  0  0  0  0  0
  -13.5436  -15.7501   34.4843 N   0  0  0  0  0  0  0  0  0  0  0  0
  -14.3717  -14.9213   35.1923 C   0  0  0  0  0  0  0  0  0  0  0  0
  -14.4264  -13.6029   35.2067 N   0  0  0  0  0  0  0  0  0  0  0  0
  -15.5473   -9.6623   38.0646 C   0  0  0  0  0  0  0  0  0  0  0  0
  -14.3783   -9.6062   38.6779 N   0  0  0  0  0  0  0  0  0  0  0  0
  -14.2390   -8.4633   39.4479 C   0  0  0  0  0  0  0  0  0  0  0  0
  -15.2633   -7.5554   39.3480 C   0  0  0  0  0  0  0  0  0  0  0  0
  -16.4621   -8.1757   38.3040 S   0  0  0  0  0  0  0  0  0  0  0  0
  -18.6367  -11.0666   38.4747 C   0  0  0  0  0  0  0  0  0  0  0  0
  -19.8778  -11.0010   39.1117 C   0  0  0  0  0  0  0  0  0  0  0  0
  -21.9343  -10.3832   38.9551 H   0  0  0  0  0  0  0  0  0  0  0  0
  -21.6746   -9.4990   36.6518 H   0  0  0  0  0  0  0  0  0  0  0  0
  -19.4876   -9.6119   35.5167 H   0  0  0  0  0  0  0  0  0  0  0  0
  -17.0505   -9.7349   35.8148 H   0  0  0  0  0  0  0  0  0  0  0  0
  -17.2047  -11.4808   35.7574 H   0  0  0  0  0  0  0  0  0  0  0  0
  -14.2290  -11.2944   36.3315 H   0  0  0  0  0  0  0  0  0  0  0  0
  -14.4934  -12.0338   37.9232 H   0  0  0  0  0  0  0  0  0  0  0  0
  -16.3973  -14.5124   37.7141 H   0  0  0  0  0  0  0  0  0  0  0  0
  -16.0666  -17.1248   37.1229 H   0  0  0  0  0  0  0  0  0  0  0  0
  -14.5853  -18.7358   35.8010 H   0  0  0  0  0  0  0  0  0  0  0  0
  -12.9365  -17.7159   34.2514 H   0  0  0  0  0  0  0  0  0  0  0  0
  -13.3416   -8.3365   40.0414 H   0  0  0  0  0  0  0  0  0  0  0  0
  -15.3631   -6.5942   39.8299 H   0  0  0  0  0  0  0  0  0  0  0  0
  -17.7987  -11.5207   38.9996 H   0  0  0  0  0  0  0  0  0  0  0  0
  -19.9894  -11.3936   40.1187 H   0  0  0  0  0  0  0  0  0  0  0  0
  1  2  2  0
  2  3  1  0
  3  4  2  0
  4  5  1  0
  5  6  1  0
  6  7  1  0
  7  8  1  0
  8  9  2  0
  9 10  1  0
 10 11  1  0
 11 12  2  0
 12 13  1  0
 13 14  2  0
 14 15  1  0
 15 16  2  0
  6 17  1  0
 17 18  2  0
 18 19  1  0
 19 20  2  0
 20 21  1  0
  4 22  1  0
 22 23  2  0
 23  1  1  0
 16  8  1  0
 21 17  1  0
 15 10  1  0
  1 24  1  0
  2 25  1  0
  3 26  1  0
  5 27  1  0
  5 28  1  0
  7 29  1  0
  7 30  1  0
  9 31  1  0
 11 32  1  0
 12 33  1  0
 13 34  1  0
 19 35  1  0
 20 36  1  0
 22 37  1  0
 23 38  1  0
M  END
>  <Energy>  (771) 
46.401794947364131

>  <compound_id>  (771) 
37810

>  <target_id>  (771) 
1

>  <reference_id>  (771) 
107

>  <inspiration_ids>  (771) 
[107, 7]

>  <energy_score>  (771) 
-93.9130116683643

>  <distance_score>  (771) 
9.312648198821266

>  <path>  (771) 
/opt/xchem-fragalysis-2/maxwin/BulkDock/SCRATCH/511022/C37810-P107/C37810-P107.minimised.mol

>  <scratch_subdir>  (771) 
/opt/xchem-fragalysis-2/maxwin/BulkDock/SCRATCH/511022/C37810-P107

>  <fragmenstein_runtime>  (771) 
9.529730081558228

>  <fragmenstein_outcome>  (771) 
too moved

>  <fragmenstein_mode>  (771) 
expansion

>  <fragmenstein_error>  (771) 


$$$$
C37810-P7
     RDKit          3D

 38 41  0  0  0  0  0  0  0  0999 V2000
  -14.9770  -10.8141   41.0353 C   0  0  0  0  0  0  0  0  0  0  0  0
  -15.8253  -11.5528   40.2135 C   0  0  0  0  0  0  0  0  0  0  0  0
  -15.6563  -11.5233   38.8285 C   0  0  0  0  0  0  0  0  0  0  0  0
  -14.6408  -10.7460   38.2474 C   0  0  0  0  0  0  0  0  0  0  0  0
  -14.4402  -10.7298   36.7451 C   0  0  0  0  0  0  0  0  0  0  0  0
  -15.6997  -10.5220   36.0350 N   0  0  0  0  0  0  0  0  0  0  0  0
  -16.1527  -11.5443   35.0290 C   0  0  0  0  0  0  0  0  0  0  0  0
  -15.9046  -13.0952   35.1285 C   0  0  0  0  0  0  0  0  0  0  0  0
  -14.8114  -13.8091   34.6821 C   0  0  0  0  0  0  0  0  0  0  0  0
  -15.0762  -15.1544   34.8529 N   0  0  0  0  0  0  0  0  0  0  0  0
  -14.2563  -16.2735   34.6601 C   0  0  0  0  0  0  0  0  0  0  0  0
  -14.7028  -17.4886   35.0096 C   0  0  0  0  0  0  0  0  0  0  0  0
  -16.1196  -17.5090   35.4671 C   0  0  0  0  0  0  0  0  0  0  0  0
  -16.8987  -16.4786   35.6170 N   0  0  0  0  0  0  0  0  0  0  0  0
  -16.3614  -15.2465   35.3580 C   0  0  0  0  0  0  0  0  0  0  0  0
  -16.8620  -14.0277   35.5306 N   0  0  0  0  0  0  0  0  0  0  0  0
  -16.0586   -9.2038   35.8059 C   0  0  0  0  0  0  0  0  0  0  0  0
  -16.5697   -8.7590   34.6755 N   0  0  0  0  0  0  0  0  0  0  0  0
  -16.8153   -7.3965   34.7305 C   0  0  0  0  0  0  0  0  0  0  0  0
  -16.5225   -6.7788   35.9220 C   0  0  0  0  0  0  0  0  0  0  0  0
  -15.9010   -7.9356   37.0106 S   0  0  0  0  0  0  0  0  0  0  0  0
  -13.7901  -10.0119   39.0884 C   0  0  0  0  0  0  0  0  0  0  0  0
  -13.9592  -10.0458   40.4736 C   0  0  0  0  0  0  0  0  0  0  0  0
  -15.1052  -10.8403   42.1136 H   0  0  0  0  0  0  0  0  0  0  0  0
  -16.6204  -12.1519   40.6487 H   0  0  0  0  0  0  0  0  0  0  0  0
  -16.3326  -12.0994   38.1995 H   0  0  0  0  0  0  0  0  0  0  0  0
  -13.7071   -9.9663   36.4574 H   0  0  0  0  0  0  0  0  0  0  0  0
  -13.9805  -11.6775   36.4587 H   0  0  0  0  0  0  0  0  0  0  0  0
  -17.2426  -11.4422   34.9306 H   0  0  0  0  0  0  0  0  0  0  0  0
  -15.7271  -11.2545   34.0570 H   0  0  0  0  0  0  0  0  0  0  0  0
  -13.8908  -13.4473   34.2694 H   0  0  0  0  0  0  0  0  0  0  0  0
  -13.2589  -16.1158   34.2627 H   0  0  0  0  0  0  0  0  0  0  0  0
  -14.1355  -18.4070   34.9402 H   0  0  0  0  0  0  0  0  0  0  0  0
  -16.5238  -18.5122   35.6853 H   0  0  0  0  0  0  0  0  0  0  0  0
  -17.2201   -6.9070   33.8550 H   0  0  0  0  0  0  0  0  0  0  0  0
  -16.6324   -5.7391   36.1906 H   0  0  0  0  0  0  0  0  0  0  0  0
  -12.9806   -9.4183   38.6737 H   0  0  0  0  0  0  0  0  0  0  0  0
  -13.2887   -9.4780   41.1130 H   0  0  0  0  0  0  0  0  0  0  0  0
  1  2  2  0
  2  3  1  0
  3  4  2  0
  4  5  1  0
  5  6  1  0
  6  7  1  0
  7  8  1  0
  8  9  2  0
  9 10  1  0
 10 11  1  0
 11 12  2  0
 12 13  1  0
 13 14  2  0
 14 15  1  0
 15 16  2  0
  6 17  1  0
 17 18  2  0
 18 19  1  0
 19 20  2  0
 20 21  1  0
  4 22  1  0
 22 23  2  0
 23  1  1  0
 16  8  1  0
 21 17  1  0
 15 10  1  0
  1 24  1  0
  2 25  1  0
  3 26  1  0
  5 27  1  0
  5 28  1  0
  7 29  1  0
  7 30  1  0
  9 31  1  0
 11 32  1  0
 12 33  1  0
 13 34  1  0
 19 35  1  0
 20 36  1  0
 22 37  1  0
 23 38  1  0
M  END
>  <Energy>  (772) 
42.111978915624093

>  <compound_id>  (772) 
37810

>  <target_id>  (772) 
1

>  <reference_id>  (772) 
7

>  <inspiration_ids>  (772) 
[107, 7]

>  <energy_score>  (772) 
-98.20282770010763

>  <distance_score>  (772) 
9.218942759913029

>  <path>  (772) 
/opt/xchem-fragalysis-2/maxwin/BulkDock/SCRATCH/511022/C37810-P7/C37810-P7.minimised.mol

>  <scratch_subdir>  (772) 
/opt/xchem-fragalysis-2/maxwin/BulkDock/SCRATCH/511022/C37810-P7

>  <fragmenstein_runtime>  (772) 
9.60335087776184

>  <fragmenstein_outcome>  (772) 
too moved

>  <fragmenstein_mode>  (772) 
expansion

>  <fragmenstein_error>  (772) 


$$$$
C18943-P107
     RDKit          3D

 34 37  0  0  0  0  0  0  0  0999 V2000
  -13.7335  -17.9768   36.9312 O   0  0  0  0  0  0  0  0  0  0  0  0
  -14.1486  -17.6657   35.8679 C   0  0  0  0  0  0  0  0  0  0  0  0
  -14.6089  -16.2259   35.3111 N   0  0  0  0  0  0  0  0  0  0  0  0
  -14.7322  -14.9078   36.0120 C   0  0  0  0  0  0  0  0  0  0  0  0
  -14.8245  -13.7326   35.2119 C   0  0  0  0  0  0  0  0  0  0  0  0
  -14.9717  -12.3455   35.7127 C   0  0  0  0  0  0  0  0  0  0  0  0
  -15.0668  -12.0006   37.0763 C   0  0  0  0  0  0  0  0  0  0  0  0
  -14.9236  -10.4974   37.6214 C   0  0  0  0  0  0  0  0  0  0  0  0
  -15.9329   -9.4756   37.8531 C   0  0  0  0  0  0  0  0  0  0  0  0
  -15.2961   -8.3905   38.4138 C   0  0  0  0  0  0  0  0  0  0  0  0
  -13.9879   -8.6979   38.5355 O   0  0  0  0  0  0  0  0  0  0  0  0
  -13.7349   -9.9319   37.9573 N   0  0  0  0  0  0  0  0  0  0  0  0
  -15.1216  -13.1841   37.8810 C   0  0  0  0  0  0  0  0  0  0  0  0
  -14.9473  -14.6016   37.3644 C   0  0  0  0  0  0  0  0  0  0  0  0
  -14.4203  -18.7971   34.8033 C   0  0  0  0  0  0  0  0  0  0  0  0
  -15.7409  -19.0161   34.4194 C   0  0  0  0  0  0  0  0  0  0  0  0
  -15.9201  -19.9476   33.4503 N   0  0  0  0  0  0  0  0  0  0  0  0
  -14.7798  -20.5607   33.3082 C   0  0  0  0  0  0  0  0  0  0  0  0
  -14.5216  -21.5544   32.4008 N   0  0  0  0  0  0  0  0  0  0  0  0
  -13.3423  -22.0748   32.4151 C   0  0  0  0  0  0  0  0  0  0  0  0
  -12.2507  -21.5921   33.2796 C   0  0  0  0  0  0  0  0  0  0  0  0
  -12.5154  -20.5413   34.0976 C   0  0  0  0  0  0  0  0  0  0  0  0
  -13.7986  -19.9699   34.1603 N   0  0  0  0  0  0  0  0  0  0  0  0
  -14.8325  -16.2970   34.3374 H   0  0  0  0  0  0  0  0  0  0  0  0
  -14.7255  -13.8267   34.1289 H   0  0  0  0  0  0  0  0  0  0  0  0
  -14.9247  -11.5601   34.9633 H   0  0  0  0  0  0  0  0  0  0  0  0
  -16.9917   -9.5794   37.6700 H   0  0  0  0  0  0  0  0  0  0  0  0
  -15.6067   -7.4295   38.7951 H   0  0  0  0  0  0  0  0  0  0  0  0
  -15.1960  -13.0664   38.9622 H   0  0  0  0  0  0  0  0  0  0  0  0
  -14.9702  -15.4071   38.0965 H   0  0  0  0  0  0  0  0  0  0  0  0
  -16.5965  -18.4637   34.7927 H   0  0  0  0  0  0  0  0  0  0  0  0
  -13.0959  -22.9085   31.7373 H   0  0  0  0  0  0  0  0  0  0  0  0
  -11.3188  -22.1190   33.1809 H   0  0  0  0  0  0  0  0  0  0  0  0
  -11.7957  -20.0738   34.7483 H   0  0  0  0  0  0  0  0  0  0  0  0
  1  2  2  0
  2  3  1  0
  3  4  1  0
  4  5  2  0
  5  6  1  0
  6  7  2  0
  7  8  1  0
  8  9  1  0
  9 10  2  0
 10 11  1  0
 11 12  1  0
  7 13  1  0
 13 14  2  0
  2 15  1  0
 15 16  2  0
 16 17  1  0
 17 18  2  0
 18 19  1  0
 19 20  2  0
 20 21  1  0
 21 22  2  0
 22 23  1  0
 14  4  1  0
 23 15  1  0
 12  8  2  0
 23 18  1  0
  3 24  1  0
  5 25  1  0
  6 26  1  0
  9 27  1  0
 10 28  1  0
 13 29  1  0
 14 30  1  0
 16 31  1  0
 20 32  1  0
 21 33  1  0
 22 34  1  0
M  END
>  <Energy>  (773) 
98.698704423782203

>  <compound_id>  (773) 
18943

>  <target_id>  (773) 
1

>  <reference_id>  (773) 
107

>  <inspiration_ids>  (773) 
[107, 7]

>  <energy_score>  (773) 
60.33989888151609

>  <distance_score>  (773) 
7.156481934339856

>  <path>  (773) 
/opt/xchem-fragalysis-2/maxwin/BulkDock/SCRATCH/511022/C18943-P107/C18943-P107.minimised.mol

>  <scratch_subdir>  (773) 
/opt/xchem-fragalysis-2/maxwin/BulkDock/SCRATCH/511022/C18943-P107

>  <fragmenstein_runtime>  (773) 
10.54202914237976

>  <fragmenstein_outcome>  (773) 
too moved

>  <fragmenstein_mode>  (773) 
expansion

>  <fragmenstein_error>  (773) 


$$$$
C18943-P7
     RDKit          3D

 34 37  0  0  0  0  0  0  0  0999 V2000
  -14.1142  -13.7005   34.3127 O   0  0  0  0  0  0  0  0  0  0  0  0
  -14.9944  -13.5034   35.1006 C   0  0  0  0  0  0  0  0  0  0  0  0
  -15.4021  -12.2590   35.7977 N   0  0  0  0  0  0  0  0  0  0  0  0
  -14.8077  -10.9553   35.8078 C   0  0  0  0  0  0  0  0  0  0  0  0
  -15.1551   -9.7797   36.4913 C   0  0  0  0  0  0  0  0  0  0  0  0
  -14.3212   -8.5521   36.4400 C   0  0  0  0  0  0  0  0  0  0  0  0
  -13.0920   -8.4413   35.6598 C   0  0  0  0  0  0  0  0  0  0  0  0
  -11.7259   -6.9249   35.5422 C   0  0  0  0  0  0  0  0  0  0  0  0
  -12.1654   -5.1432   35.9649 C   0  0  0  0  0  0  0  0  0  0  0  0
  -11.0415   -4.4535   36.1204 C   0  0  0  0  0  0  0  0  0  0  0  0
  -10.1604   -5.4428   35.8390 O   0  0  0  0  0  0  0  0  0  0  0  0
  -10.7469   -6.3895   34.8231 N   0  0  0  0  0  0  0  0  0  0  0  0
  -12.8031   -9.7474   35.1048 C   0  0  0  0  0  0  0  0  0  0  0  0
  -13.6231  -10.8734   35.1244 C   0  0  0  0  0  0  0  0  0  0  0  0
  -15.6834  -14.7648   35.4731 C   0  0  0  0  0  0  0  0  0  0  0  0
  -16.8909  -15.0382   36.0791 C   0  0  0  0  0  0  0  0  0  0  0  0
  -17.1148  -16.3884   36.2148 N   0  0  0  0  0  0  0  0  0  0  0  0
  -16.0659  -17.0071   35.7205 C   0  0  0  0  0  0  0  0  0  0  0  0
  -15.8616  -18.3524   35.5669 N   0  0  0  0  0  0  0  0  0  0  0  0
  -14.6968  -18.7233   35.1368 C   0  0  0  0  0  0  0  0  0  0  0  0
  -13.5784  -17.8256   34.7866 C   0  0  0  0  0  0  0  0  0  0  0  0
  -13.8881  -16.5219   34.7804 C   0  0  0  0  0  0  0  0  0  0  0  0
  -15.1266  -16.0711   35.2761 N   0  0  0  0  0  0  0  0  0  0  0  0
  -16.2408  -12.4374   36.3317 H   0  0  0  0  0  0  0  0  0  0  0  0
  -16.0512   -9.7548   37.1074 H   0  0  0  0  0  0  0  0  0  0  0  0
  -14.6817   -7.7018   37.0186 H   0  0  0  0  0  0  0  0  0  0  0  0
  -13.1498   -4.8809   36.3698 H   0  0  0  0  0  0  0  0  0  0  0  0
  -10.7067   -3.5253   36.5519 H   0  0  0  0  0  0  0  0  0  0  0  0
  -11.8228   -9.9047   34.6694 H   0  0  0  0  0  0  0  0  0  0  0  0
  -13.2518  -11.7322   34.6071 H   0  0  0  0  0  0  0  0  0  0  0  0
  -17.6428  -14.3338   36.4116 H   0  0  0  0  0  0  0  0  0  0  0  0
  -14.5029  -19.7932   34.9604 H   0  0  0  0  0  0  0  0  0  0  0  0
  -12.6300  -18.2356   34.4686 H   0  0  0  0  0  0  0  0  0  0  0  0
  -13.1755  -15.7988   34.4044 H   0  0  0  0  0  0  0  0  0  0  0  0
  1  2  2  0
  2  3  1  0
  3  4  1  0
  4  5  2  0
  5  6  1  0
  6  7  2  0
  7  8  1  0
  8  9  1  0
  9 10  2  0
 10 11  1  0
 11 12  1  0
  7 13  1  0
 13 14  2  0
  2 15  1  0
 15 16  2  0
 16 17  1  0
 17 18  2  0
 18 19  1  0
 19 20  2  0
 20 21  1  0
 21 22  2  0
 22 23  1  0
 14  4  1  0
 23 15  1  0
 12  8  2  0
 23 18  1  0
  3 24  1  0
  5 25  1  0
  6 26  1  0
  9 27  1  0
 10 28  1  0
 13 29  1  0
 14 30  1  0
 16 31  1  0
 20 32  1  0
 21 33  1  0
 22 34  1  0
M  END
>  <Energy>  (774) 
238.94675797633093

>  <compound_id>  (774) 
18943

>  <target_id>  (774) 
1

>  <reference_id>  (774) 
7

>  <inspiration_ids>  (774) 
[107, 7]

>  <energy_score>  (774) 
164.64581548246906

>  <distance_score>  (774) 
8.164683607205323

>  <path>  (774) 
/opt/xchem-fragalysis-2/maxwin/BulkDock/SCRATCH/511022/C18943-P7/C18943-P7.minimised.mol

>  <scratch_subdir>  (774) 
/opt/xchem-fragalysis-2/maxwin/BulkDock/SCRATCH/511022/C18943-P7

>  <fragmenstein_runtime>  (774) 
7.956961154937744

>  <fragmenstein_outcome>  (774) 
too moved

>  <fragmenstein_mode>  (774) 
expansion

>  <fragmenstein_error>  (774) 


$$$$
C54480-P107
     RDKit          3D

 34 37  0  0  0  0  0  0  0  0999 V2000
  -16.4183  -13.4083   35.2330 O   0  0  0  0  0  0  0  0  0  0  0  0
  -15.8602  -13.2671   36.2837 C   0  0  0  0  0  0  0  0  0  0  0  0
  -15.8216  -12.1286   37.1914 N   0  0  0  0  0  0  0  0  0  0  0  0
  -16.5051  -10.8860   37.1519 C   0  0  0  0  0  0  0  0  0  0  0  0
  -17.6519  -10.8512   36.3253 C   0  0  0  0  0  0  0  0  0  0  0  0
  -18.5020   -9.7464   36.2638 C   0  0  0  0  0  0  0  0  0  0  0  0
  -18.2315   -8.6347   37.0366 C   0  0  0  0  0  0  0  0  0  0  0  0
  -17.0962   -8.6281   37.8449 C   0  0  0  0  0  0  0  0  0  0  0  0
  -16.1963   -9.7274   37.9124 C   0  0  0  0  0  0  0  0  0  0  0  0
  -14.9659   -9.5264   38.6906 C   0  0  0  0  0  0  0  0  0  0  0  0
  -13.9164  -10.3026   38.8641 N   0  0  0  0  0  0  0  0  0  0  0  0
  -13.0514   -9.5493   39.6260 C   0  0  0  0  0  0  0  0  0  0  0  0
  -13.6055   -8.3270   39.8980 C   0  0  0  0  0  0  0  0  0  0  0  0
  -14.8188   -8.2842   39.2859 O   0  0  0  0  0  0  0  0  0  0  0  0
  -15.1871  -14.4700   36.7833 C   0  0  0  0  0  0  0  0  0  0  0  0
  -15.2886  -15.1245   37.9963 C   0  0  0  0  0  0  0  0  0  0  0  0
  -14.6589  -16.3497   37.9862 N   0  0  0  0  0  0  0  0  0  0  0  0
  -14.1848  -16.5025   36.7679 C   0  0  0  0  0  0  0  0  0  0  0  0
  -13.4793  -17.5551   36.2473 N   0  0  0  0  0  0  0  0  0  0  0  0
  -13.0330  -17.4004   35.0376 C   0  0  0  0  0  0  0  0  0  0  0  0
  -13.2413  -16.1997   34.1876 C   0  0  0  0  0  0  0  0  0  0  0  0
  -13.9767  -15.2264   34.7253 C   0  0  0  0  0  0  0  0  0  0  0  0
  -14.4577  -15.3616   36.0108 N   0  0  0  0  0  0  0  0  0  0  0  0
  -15.1778  -12.3314   37.9517 H   0  0  0  0  0  0  0  0  0  0  0  0
  -17.9377  -11.7165   35.7308 H   0  0  0  0  0  0  0  0  0  0  0  0
  -19.3799   -9.7727   35.6237 H   0  0  0  0  0  0  0  0  0  0  0  0
  -18.8891   -7.7700   37.0072 H   0  0  0  0  0  0  0  0  0  0  0  0
  -16.9059   -7.7218   38.4191 H   0  0  0  0  0  0  0  0  0  0  0  0
  -12.0868   -9.9312   39.9311 H   0  0  0  0  0  0  0  0  0  0  0  0
  -13.2972   -7.4443   40.4385 H   0  0  0  0  0  0  0  0  0  0  0  0
  -15.8324  -14.7948   38.8727 H   0  0  0  0  0  0  0  0  0  0  0  0
  -12.4552  -18.2202   34.5834 H   0  0  0  0  0  0  0  0  0  0  0  0
  -12.8439  -16.1070   33.1920 H   0  0  0  0  0  0  0  0  0  0  0  0
  -14.2110  -14.3101   34.1972 H   0  0  0  0  0  0  0  0  0  0  0  0
  1  2  2  0
  2  3  1  0
  3  4  1  0
  4  5  2  0
  5  6  1  0
  6  7  2  0
  7  8  1  0
  8  9  2  0
  9 10  1  0
 10 11  2  0
 11 12  1  0
 12 13  2  0
 13 14  1  0
  2 15  1  0
 15 16  2  0
 16 17  1  0
 17 18  2  0
 18 19  1  0
 19 20  2  0
 20 21  1  0
 21 22  2  0
 22 23  1  0
  9  4  1  0
 14 10  1  0
 23 15  1  0
 23 18  1  0
  3 24  1  0
  5 25  1  0
  6 26  1  0
  7 27  1  0
  8 28  1  0
 12 29  1  0
 13 30  1  0
 16 31  1  0
 20 32  1  0
 21 33  1  0
 22 34  1  0
M  END
>  <Energy>  (775) 
41.40886863173867

>  <compound_id>  (775) 
54480

>  <target_id>  (775) 
1

>  <reference_id>  (775) 
107

>  <inspiration_ids>  (775) 
[107, 7]

>  <energy_score>  (775) 
-48.8680549376074

>  <distance_score>  (775) 
9.210970649379416

>  <path>  (775) 
/opt/xchem-fragalysis-2/maxwin/BulkDock/SCRATCH/511022/C54480-P107/C54480-P107.minimised.mol

>  <scratch_subdir>  (775) 
/opt/xchem-fragalysis-2/maxwin/BulkDock/SCRATCH/511022/C54480-P107

>  <fragmenstein_runtime>  (775) 
8.650042295455933

>  <fragmenstein_outcome>  (775) 
too moved

>  <fragmenstein_mode>  (775) 
expansion

>  <fragmenstein_error>  (775) 


$$$$
C54480-P7
     RDKit          3D

 34 37  0  0  0  0  0  0  0  0999 V2000
  -17.4558  -16.9647   37.2869 O   0  0  0  0  0  0  0  0  0  0  0  0
  -16.6898  -16.2886   36.6593 C   0  0  0  0  0  0  0  0  0  0  0  0
  -16.4804  -14.8213   36.6556 N   0  0  0  0  0  0  0  0  0  0  0  0
  -17.1891  -13.7739   37.3249 C   0  0  0  0  0  0  0  0  0  0  0  0
  -18.3048  -14.1972   38.0878 C   0  0  0  0  0  0  0  0  0  0  0  0
  -19.1275  -13.3198   38.7958 C   0  0  0  0  0  0  0  0  0  0  0  0
  -18.8627  -11.9689   38.7665 C   0  0  0  0  0  0  0  0  0  0  0  0
  -17.7700  -11.5114   38.0345 C   0  0  0  0  0  0  0  0  0  0  0  0
  -16.8970  -12.3737   37.3059 C   0  0  0  0  0  0  0  0  0  0  0  0
  -15.7750  -11.6891   36.6300 C   0  0  0  0  0  0  0  0  0  0  0  0
  -14.9713  -12.0634   35.6518 N   0  0  0  0  0  0  0  0  0  0  0  0
  -14.1684  -10.9559   35.4366 C   0  0  0  0  0  0  0  0  0  0  0  0
  -14.5030   -9.9482   36.2984 C   0  0  0  0  0  0  0  0  0  0  0  0
  -15.5224  -10.3974   37.0683 O   0  0  0  0  0  0  0  0  0  0  0  0
  -15.7936  -17.0682   35.7775 C   0  0  0  0  0  0  0  0  0  0  0  0
  -14.6740  -16.7058   35.0559 C   0  0  0  0  0  0  0  0  0  0  0  0
  -14.0935  -17.7621   34.4217 N   0  0  0  0  0  0  0  0  0  0  0  0
  -14.8375  -18.8106   34.6756 C   0  0  0  0  0  0  0  0  0  0  0  0
  -14.7106  -20.0511   34.1204 N   0  0  0  0  0  0  0  0  0  0  0  0
  -15.6874  -20.8790   34.3072 C   0  0  0  0  0  0  0  0  0  0  0  0
  -16.9170  -20.5814   35.0853 C   0  0  0  0  0  0  0  0  0  0  0  0
  -16.9804  -19.3546   35.6321 C   0  0  0  0  0  0  0  0  0  0  0  0
  -15.9449  -18.4356   35.4357 N   0  0  0  0  0  0  0  0  0  0  0  0
  -15.8056  -14.5837   35.9407 H   0  0  0  0  0  0  0  0  0  0  0  0
  -18.5884  -15.2445   38.1414 H   0  0  0  0  0  0  0  0  0  0  0  0
  -19.9736  -13.7052   39.3587 H   0  0  0  0  0  0  0  0  0  0  0  0
  -19.4935  -11.2696   39.3082 H   0  0  0  0  0  0  0  0  0  0  0  0
  -17.6013  -10.4339   38.0425 H   0  0  0  0  0  0  0  0  0  0  0  0
  -13.3990  -10.9461   34.6807 H   0  0  0  0  0  0  0  0  0  0  0  0
  -14.1586   -8.9456   36.4899 H   0  0  0  0  0  0  0  0  0  0  0  0
  -14.2673  -15.7221   34.8920 H   0  0  0  0  0  0  0  0  0  0  0  0
  -15.6284  -21.8941   33.8782 H   0  0  0  0  0  0  0  0  0  0  0  0
  -17.6801  -21.3394   35.1885 H   0  0  0  0  0  0  0  0  0  0  0  0
  -17.8353  -19.0314   36.2128 H   0  0  0  0  0  0  0  0  0  0  0  0
  1  2  2  0
  2  3  1  0
  3  4  1  0
  4  5  2  0
  5  6  1  0
  6  7  2  0
  7  8  1  0
  8  9  2  0
  9 10  1  0
 10 11  2  0
 11 12  1  0
 12 13  2  0
 13 14  1  0
  2 15  1  0
 15 16  2  0
 16 17  1  0
 17 18  2  0
 18 19  1  0
 19 20  2  0
 20 21  1  0
 21 22  2  0
 22 23  1  0
  9  4  1  0
 14 10  1  0
 23 15  1  0
 23 18  1  0
  3 24  1  0
  5 25  1  0
  6 26  1  0
  7 27  1  0
  8 28  1  0
 12 29  1  0
 13 30  1  0
 16 31  1  0
 20 32  1  0
 21 33  1  0
 22 34  1  0
M  END
>  <Energy>  (776) 
45.105216026686072

>  <compound_id>  (776) 
54480

>  <target_id>  (776) 
1

>  <reference_id>  (776) 
7

>  <inspiration_ids>  (776) 
[107, 7]

>  <energy_score>  (776) 
-45.171707542660656

>  <distance_score>  (776) 
9.081320904636868

>  <path>  (776) 
/opt/xchem-fragalysis-2/maxwin/BulkDock/SCRATCH/511022/C54480-P7/C54480-P7.minimised.mol

>  <scratch_subdir>  (776) 
/opt/xchem-fragalysis-2/maxwin/BulkDock/SCRATCH/511022/C54480-P7

>  <fragmenstein_runtime>  (776) 
9.325263023376465

>  <fragmenstein_outcome>  (776) 
too moved

>  <fragmenstein_mode>  (776) 
expansion

>  <fragmenstein_error>  (776) 


$$$$
C17683-P107
     RDKit          3D

 47 50  0  0  0  0  0  0  0  0999 V2000
  -16.6935  -12.7829   34.2385 O   0  0  0  0  0  0  0  0  0  0  0  0
  -16.4554  -13.1994   35.3411 C   0  0  0  0  0  0  0  0  0  0  0  0
  -15.8378  -14.5888   35.4047 C   0  0  0  0  0  0  0  0  0  0  0  0
  -14.4982  -14.9475   35.3725 C   0  0  0  0  0  0  0  0  0  0  0  0
  -14.4389  -16.3146   35.1923 N   0  0  0  0  0  0  0  0  0  0  0  0
  -13.3498  -17.1784   35.0866 C   0  0  0  0  0  0  0  0  0  0  0  0
  -13.5490  -18.4930   34.9077 C   0  0  0  0  0  0  0  0  0  0  0  0
  -14.9773  -18.8933   34.7889 C   0  0  0  0  0  0  0  0  0  0  0  0
  -16.0021  -18.0969   34.8517 N   0  0  0  0  0  0  0  0  0  0  0  0
  -15.7474  -16.7710   35.0890 C   0  0  0  0  0  0  0  0  0  0  0  0
  -16.5876  -15.7584   35.2236 N   0  0  0  0  0  0  0  0  0  0  0  0
  -16.7485  -12.6354   36.6411 N   0  0  0  0  0  0  0  0  0  0  0  0
  -17.5626  -11.3768   37.0371 C   0  0  0  0  0  0  0  0  0  0  0  0
  -17.6346  -10.0250   36.3137 C   0  0  0  0  0  0  0  0  0  0  0  0
  -17.3752   -8.8243   37.0122 C   0  0  0  0  0  0  0  0  0  0  0  0
  -17.5230   -7.6018   36.3676 C   0  0  0  0  0  0  0  0  0  0  0  0
  -17.9195   -7.4912   35.0858 N   0  0  0  0  0  0  0  0  0  0  0  0
  -18.2280   -8.6484   34.4442 C   0  0  0  0  0  0  0  0  0  0  0  0
  -18.0995   -9.9179   35.0026 C   0  0  0  0  0  0  0  0  0  0  0  0
  -15.5748  -11.7527   37.1158 C   0  0  0  0  0  0  0  0  0  0  0  0
  -15.1901  -11.8325   38.6367 C   0  0  0  0  0  0  0  0  0  0  0  0
  -16.2667  -12.3421   39.4293 O   0  0  0  0  0  0  0  0  0  0  0  0
  -14.6804  -10.5564   39.2708 C   0  0  0  0  0  0  0  0  0  0  0  0
  -13.3345  -10.1905   39.1307 C   0  0  0  0  0  0  0  0  0  0  0  0
  -12.8260   -9.0745   39.7996 C   0  0  0  0  0  0  0  0  0  0  0  0
  -13.6610   -8.2814   40.5815 C   0  0  0  0  0  0  0  0  0  0  0  0
  -15.0025   -8.6197   40.7196 C   0  0  0  0  0  0  0  0  0  0  0  0
  -15.5034   -9.7556   40.0805 C   0  0  0  0  0  0  0  0  0  0  0  0
  -13.6133  -14.3427   35.4102 H   0  0  0  0  0  0  0  0  0  0  0  0
  -12.3577  -16.7530   35.1377 H   0  0  0  0  0  0  0  0  0  0  0  0
  -12.7615  -19.2276   34.8054 H   0  0  0  0  0  0  0  0  0  0  0  0
  -15.1506  -19.9659   34.5994 H   0  0  0  0  0  0  0  0  0  0  0  0
  -18.5779  -11.7701   36.8561 H   0  0  0  0  0  0  0  0  0  0  0  0
  -17.6185  -11.2201   38.1195 H   0  0  0  0  0  0  0  0  0  0  0  0
  -17.0748   -8.8339   38.0527 H   0  0  0  0  0  0  0  0  0  0  0  0
  -17.3257   -6.6654   36.8804 H   0  0  0  0  0  0  0  0  0  0  0  0
  -18.5772   -8.5294   33.4214 H   0  0  0  0  0  0  0  0  0  0  0  0
  -18.3589  -10.7956   34.4173 H   0  0  0  0  0  0  0  0  0  0  0  0
  -14.7134  -12.2197   36.6214 H   0  0  0  0  0  0  0  0  0  0  0  0
  -15.4594  -10.7606   36.6631 H   0  0  0  0  0  0  0  0  0  0  0  0
  -14.4083  -12.5892   38.7531 H   0  0  0  0  0  0  0  0  0  0  0  0
  -16.5913  -13.1344   38.9590 H   0  0  0  0  0  0  0  0  0  0  0  0
  -12.6560  -10.7919   38.5290 H   0  0  0  0  0  0  0  0  0  0  0  0
  -11.7713   -8.8256   39.7153 H   0  0  0  0  0  0  0  0  0  0  0  0
  -13.2603   -7.4107   41.0940 H   0  0  0  0  0  0  0  0  0  0  0  0
  -15.6541   -8.0179   41.3478 H   0  0  0  0  0  0  0  0  0  0  0  0
  -16.5436  -10.0316   40.2459 H   0  0  0  0  0  0  0  0  0  0  0  0
  1  2  2  0
  2  3  1  0
  3  4  2  0
  4  5  1  0
  5  6  1  0
  6  7  2  0
  7  8  1  0
  8  9  2  0
  9 10  1  0
 10 11  2  0
  2 12  1  0
 12 13  1  0
 13 14  1  0
 14 15  2  0
 15 16  1  0
 16 17  2  0
 17 18  1  0
 18 19  2  0
 12 20  1  0
 20 21  1  0
 21 22  1  0
 21 23  1  0
 23 24  2  0
 24 25  1  0
 25 26  2  0
 26 27  1  0
 27 28  2  0
 11  3  1  0
 19 14  1  0
 28 23  1  0
 10  5  1  0
  4 29  1  0
  6 30  1  0
  7 31  1  0
  8 32  1  0
 13 33  1  0
 13 34  1  0
 15 35  1  0
 16 36  1  0
 18 37  1  0
 19 38  1  0
 20 39  1  0
 20 40  1  0
 21 41  1  0
 22 42  1  0
 24 43  1  0
 25 44  1  0
 26 45  1  0
 27 46  1  0
 28 47  1  0
M  END
>  <Energy>  (777) 
195.86130665942741

>  <compound_id>  (777) 
17683

>  <target_id>  (777) 
1

>  <reference_id>  (777) 
107

>  <inspiration_ids>  (777) 
[107, 7]

>  <energy_score>  (777) 
71.2480317254674

>  <distance_score>  (777) 
9.303074769580176

>  <path>  (777) 
/opt/xchem-fragalysis-2/maxwin/BulkDock/SCRATCH/511022/C17683-P107/C17683-P107.minimised.mol

>  <scratch_subdir>  (777) 
/opt/xchem-fragalysis-2/maxwin/BulkDock/SCRATCH/511022/C17683-P107

>  <fragmenstein_runtime>  (777) 
19.955002069473267

>  <fragmenstein_outcome>  (777) 
too moved

>  <fragmenstein_mode>  (777) 
expansion

>  <fragmenstein_error>  (777) 


$$$$
C17683-P7
     RDKit          3D

 47 50  0  0  0  0  0  0  0  0999 V2000
   -7.9166  -11.2150   34.4794 O   0  0  0  0  0  0  0  0  0  0  0  0
   -8.8154  -11.3912   33.6452 C   0  0  0  0  0  0  0  0  0  0  0  0
   -9.2458  -13.2124   32.9759 C   0  0  0  0  0  0  0  0  0  0  0  0
   -8.3461  -14.5033   32.2417 C   0  0  0  0  0  0  0  0  0  0  0  0
   -8.6005  -15.7616   32.7303 N   0  0  0  0  0  0  0  0  0  0  0  0
   -7.5357  -16.6446   33.0231 C   0  0  0  0  0  0  0  0  0  0  0  0
   -7.5734  -17.3325   34.1622 C   0  0  0  0  0  0  0  0  0  0  0  0
   -8.7814  -17.0378   34.9651 C   0  0  0  0  0  0  0  0  0  0  0  0
   -9.9207  -16.5560   34.5633 N   0  0  0  0  0  0  0  0  0  0  0  0
   -9.8385  -15.7722   33.4174 C   0  0  0  0  0  0  0  0  0  0  0  0
  -10.4071  -14.5348   33.3361 N   0  0  0  0  0  0  0  0  0  0  0  0
   -9.9140   -9.6867   33.1660 N   0  0  0  0  0  0  0  0  0  0  0  0
   -9.7090   -7.6512   33.6855 C   0  0  0  0  0  0  0  0  0  0  0  0
  -10.6160   -6.2642   34.9195 C   0  0  0  0  0  0  0  0  0  0  0  0
  -10.0227   -5.4516   35.9860 C   0  0  0  0  0  0  0  0  0  0  0  0
  -10.5790   -4.1916   37.0240 C   0  0  0  0  0  0  0  0  0  0  0  0
  -11.7601   -3.6816   37.1957 N   0  0  0  0  0  0  0  0  0  0  0  0
  -12.3848   -4.3224   36.3044 C   0  0  0  0  0  0  0  0  0  0  0  0
  -11.6311   -5.2501   35.2162 C   0  0  0  0  0  0  0  0  0  0  0  0
  -11.4209   -9.5669   34.3360 C   0  0  0  0  0  0  0  0  0  0  0  0
  -13.0105  -10.2904   34.9027 C   0  0  0  0  0  0  0  0  0  0  0  0
  -14.0836  -10.0468   33.9734 O   0  0  0  0  0  0  0  0  0  0  0  0
  -13.6388   -9.9525   36.2604 C   0  0  0  0  0  0  0  0  0  0  0  0
  -14.8319   -9.2161   36.3909 C   0  0  0  0  0  0  0  0  0  0  0  0
  -15.3975   -8.9485   37.6419 C   0  0  0  0  0  0  0  0  0  0  0  0
  -14.7900   -9.4262   38.7968 C   0  0  0  0  0  0  0  0  0  0  0  0
  -13.6226  -10.1720   38.6957 C   0  0  0  0  0  0  0  0  0  0  0  0
  -13.0645  -10.4336   37.4411 C   0  0  0  0  0  0  0  0  0  0  0  0
   -7.4986  -14.3993   31.5739 H   0  0  0  0  0  0  0  0  0  0  0  0
   -6.6967  -16.6817   32.3424 H   0  0  0  0  0  0  0  0  0  0  0  0
   -6.8155  -18.0156   34.5116 H   0  0  0  0  0  0  0  0  0  0  0  0
   -8.6931  -17.3333   36.0242 H   0  0  0  0  0  0  0  0  0  0  0  0
  -10.1897   -7.3422   32.7894 H   0  0  0  0  0  0  0  0  0  0  0  0
   -8.7645   -7.2167   33.3458 H   0  0  0  0  0  0  0  0  0  0  0  0
   -8.9302   -5.6152   35.9525 H   0  0  0  0  0  0  0  0  0  0  0  0
  -10.0111   -3.6843   37.8003 H   0  0  0  0  0  0  0  0  0  0  0  0
  -13.4724   -4.2990   36.3977 H   0  0  0  0  0  0  0  0  0  0  0  0
  -11.3863   -4.2429   34.6939 H   0  0  0  0  0  0  0  0  0  0  0  0
  -10.9628  -10.0942   35.1940 H   0  0  0  0  0  0  0  0  0  0  0  0
  -11.8490  -10.1246   33.5626 H   0  0  0  0  0  0  0  0  0  0  0  0
  -12.8984  -11.3747   34.9409 H   0  0  0  0  0  0  0  0  0  0  0  0
  -14.0719  -10.7268   33.2781 H   0  0  0  0  0  0  0  0  0  0  0  0
  -15.3456   -8.8375   35.5088 H   0  0  0  0  0  0  0  0  0  0  0  0
  -16.3149   -8.3702   37.7070 H   0  0  0  0  0  0  0  0  0  0  0  0
  -15.2229   -9.2199   39.7711 H   0  0  0  0  0  0  0  0  0  0  0  0
  -13.1316  -10.5537   39.5882 H   0  0  0  0  0  0  0  0  0  0  0  0
  -12.1310  -10.9843   37.3965 H   0  0  0  0  0  0  0  0  0  0  0  0
  1  2  2  0
  2  3  1  0
  3  4  2  0
  4  5  1  0
  5  6  1  0
  6  7  2  0
  7  8  1  0
  8  9  2  0
  9 10  1  0
 10 11  2  0
  2 12  1  0
 12 13  1  0
 13 14  1  0
 14 15  2  0
 15 16  1  0
 16 17  2  0
 17 18  1  0
 18 19  2  0
 12 20  1  0
 20 21  1  0
 21 22  1  0
 21 23  1  0
 23 24  2  0
 24 25  1  0
 25 26  2  0
 26 27  1  0
 27 28  2  0
 11  3  1  0
 19 14  1  0
 28 23  1  0
 10  5  1  0
  4 29  1  0
  6 30  1  0
  7 31  1  0
  8 32  1  0
 13 33  1  0
 13 34  1  0
 15 35  1  0
 16 36  1  0
 18 37  1  0
 19 38  1  0
 20 39  1  0
 20 40  1  0
 21 41  1  0
 22 42  1  0
 24 43  1  0
 25 44  1  0
 26 45  1  0
 27 46  1  0
 28 47  1  0
M  END
>  <Energy>  (778) 
1136.9179973020075

>  <compound_id>  (778) 
17683

>  <target_id>  (778) 
1

>  <reference_id>  (778) 
7

>  <inspiration_ids>  (778) 
[107, 7]

>  <energy_score>  (778) 
1012.3047223680468

>  <distance_score>  (778) 
8.097693007955852

>  <path>  (778) 
/opt/xchem-fragalysis-2/maxwin/BulkDock/SCRATCH/511022/C17683-P7/C17683-P7.minimised.mol

>  <scratch_subdir>  (778) 
/opt/xchem-fragalysis-2/maxwin/BulkDock/SCRATCH/511022/C17683-P7

>  <fragmenstein_runtime>  (778) 
11.706932544708252

>  <fragmenstein_outcome>  (778) 
too moved

>  <fragmenstein_mode>  (778) 
expansion

>  <fragmenstein_error>  (778) 


$$$$
C37812-P107
     RDKit          3D

 37 40  0  0  0  0  0  0  0  0999 V2000
  -14.6681  -15.2317   38.6806 O   0  0  0  0  0  0  0  0  0  0  0  0
  -15.1018  -15.1415   37.5677 C   0  0  0  0  0  0  0  0  0  0  0  0
  -16.0411  -14.2177   37.0022 N   0  0  0  0  0  0  0  0  0  0  0  0
  -16.8347  -13.1647   37.6194 C   0  0  0  0  0  0  0  0  0  0  0  0
  -16.4324  -11.6843   37.6356 C   0  0  0  0  0  0  0  0  0  0  0  0
  -17.3880  -10.7167   37.2682 C   0  0  0  0  0  0  0  0  0  0  0  0
  -17.1982   -9.3363   37.5141 C   0  0  0  0  0  0  0  0  0  0  0  0
  -16.0384   -8.8492   38.1394 C   0  0  0  0  0  0  0  0  0  0  0  0
  -15.8045   -7.4019   38.4224 C   0  0  0  0  0  0  0  0  0  0  0  0
  -14.9629   -6.9354   39.3298 N   0  0  0  0  0  0  0  0  0  0  0  0
  -14.9407   -5.5487   39.3307 C   0  0  0  0  0  0  0  0  0  0  0  0
  -15.7325   -4.9475   38.3808 C   0  0  0  0  0  0  0  0  0  0  0  0
  -16.5595   -6.1521   37.4840 S   0  0  0  0  0  0  0  0  0  0  0  0
  -15.0728   -9.8125   38.4863 C   0  0  0  0  0  0  0  0  0  0  0  0
  -15.2633  -11.1991   38.2364 C   0  0  0  0  0  0  0  0  0  0  0  0
  -14.6855  -16.2258   36.5994 C   0  0  0  0  0  0  0  0  0  0  0  0
  -13.4912  -16.9340   36.6245 C   0  0  0  0  0  0  0  0  0  0  0  0
  -13.6056  -17.9409   35.7043 N   0  0  0  0  0  0  0  0  0  0  0  0
  -12.6958  -18.9169   35.3314 C   0  0  0  0  0  0  0  0  0  0  0  0
  -13.0787  -19.9013   34.5091 C   0  0  0  0  0  0  0  0  0  0  0  0
  -14.5096  -19.8399   34.0934 C   0  0  0  0  0  0  0  0  0  0  0  0
  -15.3411  -18.8732   34.3494 N   0  0  0  0  0  0  0  0  0  0  0  0
  -14.8929  -17.8875   35.1921 C   0  0  0  0  0  0  0  0  0  0  0  0
  -15.5183  -16.8130   35.6491 N   0  0  0  0  0  0  0  0  0  0  0  0
  -16.2395  -14.4934   36.0418 H   0  0  0  0  0  0  0  0  0  0  0  0
  -16.9743  -13.4570   38.6681 H   0  0  0  0  0  0  0  0  0  0  0  0
  -17.8199  -13.2529   37.1453 H   0  0  0  0  0  0  0  0  0  0  0  0
  -18.3336  -11.0339   36.8292 H   0  0  0  0  0  0  0  0  0  0  0  0
  -18.0019   -8.6597   37.2317 H   0  0  0  0  0  0  0  0  0  0  0  0
  -14.3061   -5.0317   40.0409 H   0  0  0  0  0  0  0  0  0  0  0  0
  -15.8649   -3.8939   38.1793 H   0  0  0  0  0  0  0  0  0  0  0  0
  -14.1532   -9.5030   38.9829 H   0  0  0  0  0  0  0  0  0  0  0  0
  -14.4995  -11.9021   38.5668 H   0  0  0  0  0  0  0  0  0  0  0  0
  -12.6163  -16.8360   37.2451 H   0  0  0  0  0  0  0  0  0  0  0  0
  -11.7014  -18.8403   35.7429 H   0  0  0  0  0  0  0  0  0  0  0  0
  -12.4456  -20.7087   34.1706 H   0  0  0  0  0  0  0  0  0  0  0  0
  -14.8508  -20.6847   33.4705 H   0  0  0  0  0  0  0  0  0  0  0  0
  1  2  2  0
  2  3  1  0
  3  4  1  0
  4  5  1  0
  5  6  2  0
  6  7  1  0
  7  8  2  0
  8  9  1  0
  9 10  2  0
 10 11  1  0
 11 12  2  0
 12 13  1  0
  8 14  1  0
 14 15  2  0
  2 16  1  0
 16 17  2  0
 17 18  1  0
 18 19  1  0
 19 20  2  0
 20 21  1  0
 21 22  2  0
 22 23  1  0
 23 24  2  0
 15  5  1  0
 24 16  1  0
 13  9  1  0
 23 18  1  0
  3 25  1  0
  4 26  1  0
  4 27  1  0
  6 28  1  0
  7 29  1  0
 11 30  1  0
 12 31  1  0
 14 32  1  0
 15 33  1  0
 17 34  1  0
 19 35  1  0
 20 36  1  0
 21 37  1  0
M  END
>  <Energy>  (779) 
72.068183194984329

>  <compound_id>  (779) 
37812

>  <target_id>  (779) 
1

>  <reference_id>  (779) 
107

>  <inspiration_ids>  (779) 
[107, 7]

>  <energy_score>  (779) 
-64.65936646135359

>  <distance_score>  (779) 
7.240157378654824

>  <path>  (779) 
/opt/xchem-fragalysis-2/maxwin/BulkDock/SCRATCH/511022/C37812-P107/C37812-P107.minimised.mol

>  <scratch_subdir>  (779) 
/opt/xchem-fragalysis-2/maxwin/BulkDock/SCRATCH/511022/C37812-P107

>  <fragmenstein_runtime>  (779) 
10.619853496551514

>  <fragmenstein_outcome>  (779) 
too moved

>  <fragmenstein_mode>  (779) 
expansion

>  <fragmenstein_error>  (779) 


$$$$
C37812-P7
     RDKit          3D

 37 40  0  0  0  0  0  0  0  0999 V2000
  -17.7040  -15.2419   37.4132 O   0  0  0  0  0  0  0  0  0  0  0  0
  -16.7520  -14.9111   36.7695 C   0  0  0  0  0  0  0  0  0  0  0  0
  -16.2786  -13.6004   36.3970 N   0  0  0  0  0  0  0  0  0  0  0  0
  -16.8602  -12.2870   36.6031 C   0  0  0  0  0  0  0  0  0  0  0  0
  -16.0691  -11.0223   36.9101 C   0  0  0  0  0  0  0  0  0  0  0  0
  -15.5826  -10.7383   38.1919 C   0  0  0  0  0  0  0  0  0  0  0  0
  -15.2265   -9.4140   38.5669 C   0  0  0  0  0  0  0  0  0  0  0  0
  -15.3520   -8.3266   37.6805 C   0  0  0  0  0  0  0  0  0  0  0  0
  -15.1438   -6.8916   38.0374 C   0  0  0  0  0  0  0  0  0  0  0  0
  -15.2165   -5.8950   37.1664 N   0  0  0  0  0  0  0  0  0  0  0  0
  -14.9682   -4.6750   37.7674 C   0  0  0  0  0  0  0  0  0  0  0  0
  -14.7144   -4.7327   39.1167 C   0  0  0  0  0  0  0  0  0  0  0  0
  -14.7965   -6.3633   39.6470 S   0  0  0  0  0  0  0  0  0  0  0  0
  -15.7491   -8.6434   36.3740 C   0  0  0  0  0  0  0  0  0  0  0  0
  -16.0806   -9.9580   35.9926 C   0  0  0  0  0  0  0  0  0  0  0  0
  -15.9700  -16.0407   36.1618 C   0  0  0  0  0  0  0  0  0  0  0  0
  -16.4938  -17.3074   35.9236 C   0  0  0  0  0  0  0  0  0  0  0  0
  -15.4887  -18.0547   35.3872 N   0  0  0  0  0  0  0  0  0  0  0  0
  -15.5000  -19.3488   34.8822 C   0  0  0  0  0  0  0  0  0  0  0  0
  -14.3448  -19.9104   34.5019 C   0  0  0  0  0  0  0  0  0  0  0  0
  -13.1385  -19.0558   34.7307 C   0  0  0  0  0  0  0  0  0  0  0  0
  -13.1326  -17.8149   35.1139 N   0  0  0  0  0  0  0  0  0  0  0  0
  -14.3427  -17.2684   35.4147 C   0  0  0  0  0  0  0  0  0  0  0  0
  -14.6445  -16.0210   35.7461 N   0  0  0  0  0  0  0  0  0  0  0  0
  -15.4825  -13.7008   35.7742 H   0  0  0  0  0  0  0  0  0  0  0  0
  -17.6148  -12.3995   37.3930 H   0  0  0  0  0  0  0  0  0  0  0  0
  -17.4469  -12.1096   35.6919 H   0  0  0  0  0  0  0  0  0  0  0  0
  -15.5518  -11.5215   38.9484 H   0  0  0  0  0  0  0  0  0  0  0  0
  -14.8960   -9.2569   39.5919 H   0  0  0  0  0  0  0  0  0  0  0  0
  -14.9874   -3.7738   37.1658 H   0  0  0  0  0  0  0  0  0  0  0  0
  -14.4979   -3.9249   39.8003 H   0  0  0  0  0  0  0  0  0  0  0  0
  -15.8604   -7.8499   35.6363 H   0  0  0  0  0  0  0  0  0  0  0  0
  -16.4320  -10.1208   34.9773 H   0  0  0  0  0  0  0  0  0  0  0  0
  -17.4910  -17.6942   36.0854 H   0  0  0  0  0  0  0  0  0  0  0  0
  -16.4515  -19.8649   34.8439 H   0  0  0  0  0  0  0  0  0  0  0  0
  -14.2352  -20.9168   34.1184 H   0  0  0  0  0  0  0  0  0  0  0  0
  -12.1820  -19.5409   34.4927 H   0  0  0  0  0  0  0  0  0  0  0  0
  1  2  2  0
  2  3  1  0
  3  4  1  0
  4  5  1  0
  5  6  2  0
  6  7  1  0
  7  8  2  0
  8  9  1  0
  9 10  2  0
 10 11  1  0
 11 12  2  0
 12 13  1  0
  8 14  1  0
 14 15  2  0
  2 16  1  0
 16 17  2  0
 17 18  1  0
 18 19  1  0
 19 20  2  0
 20 21  1  0
 21 22  2  0
 22 23  1  0
 23 24  2  0
 15  5  1  0
 24 16  1  0
 13  9  1  0
 23 18  1  0
  3 25  1  0
  4 26  1  0
  4 27  1  0
  6 28  1  0
  7 29  1  0
 11 30  1  0
 12 31  1  0
 14 32  1  0
 15 33  1  0
 17 34  1  0
 19 35  1  0
 20 36  1  0
 21 37  1  0
M  END
>  <Energy>  (780) 
73.527401163659022

>  <compound_id>  (780) 
37812

>  <target_id>  (780) 
1

>  <reference_id>  (780) 
7

>  <inspiration_ids>  (780) 
[107, 7]

>  <energy_score>  (780) 
-63.20014849268074

>  <distance_score>  (780) 
7.217033017067137

>  <path>  (780) 
/opt/xchem-fragalysis-2/maxwin/BulkDock/SCRATCH/511022/C37812-P7/C37812-P7.minimised.mol

>  <scratch_subdir>  (780) 
/opt/xchem-fragalysis-2/maxwin/BulkDock/SCRATCH/511022/C37812-P7

>  <fragmenstein_runtime>  (780) 
11.43958067893982

>  <fragmenstein_outcome>  (780) 
too moved

>  <fragmenstein_mode>  (780) 
expansion

>  <fragmenstein_error>  (780) 


$$$$
C37813-P107
     RDKit          3D

 34 37  0  0  0  0  0  0  0  0999 V2000
  -17.8582  -11.5661   35.7246 C   0  0  0  0  0  0  0  0  0  0  0  0
  -17.6864  -10.3626   36.3854 C   0  0  0  0  0  0  0  0  0  0  0  0
  -16.5676  -10.2006   37.1893 C   0  0  0  0  0  0  0  0  0  0  0  0
  -15.6022  -11.2320   37.3722 C   0  0  0  0  0  0  0  0  0  0  0  0
  -14.4890  -10.7972   38.2516 C   0  0  0  0  0  0  0  0  0  0  0  0
  -13.9182   -9.5922   38.1913 N   0  0  0  0  0  0  0  0  0  0  0  0
  -13.1208   -9.3847   39.3038 C   0  0  0  0  0  0  0  0  0  0  0  0
  -13.1022  -10.4072   40.2175 C   0  0  0  0  0  0  0  0  0  0  0  0
  -14.1387  -11.6661   39.6966 S   0  0  0  0  0  0  0  0  0  0  0  0
  -15.8342  -12.5029   36.7547 C   0  0  0  0  0  0  0  0  0  0  0  0
  -14.9867  -13.5999   36.8555 O   0  0  0  0  0  0  0  0  0  0  0  0
  -15.5859  -14.9294   37.0257 C   0  0  0  0  0  0  0  0  0  0  0  0
  -14.9517  -16.1238   36.2740 C   0  0  0  0  0  0  0  0  0  0  0  0
  -13.6613  -16.6234   36.2644 C   0  0  0  0  0  0  0  0  0  0  0  0
  -13.6778  -17.7918   35.5379 N   0  0  0  0  0  0  0  0  0  0  0  0
  -12.6529  -18.6737   35.2254 C   0  0  0  0  0  0  0  0  0  0  0  0
  -12.9300  -19.7953   34.5474 C   0  0  0  0  0  0  0  0  0  0  0  0
  -14.3652  -19.9701   34.1807 C   0  0  0  0  0  0  0  0  0  0  0  0
  -15.3248  -19.1284   34.4223 N   0  0  0  0  0  0  0  0  0  0  0  0
  -14.9905  -18.0184   35.1539 C   0  0  0  0  0  0  0  0  0  0  0  0
  -15.7582  -17.0387   35.5947 N   0  0  0  0  0  0  0  0  0  0  0  0
  -16.9373  -12.6089   35.8917 C   0  0  0  0  0  0  0  0  0  0  0  0
  -18.7131  -11.7181   35.0698 H   0  0  0  0  0  0  0  0  0  0  0  0
  -18.4064   -9.5585   36.2707 H   0  0  0  0  0  0  0  0  0  0  0  0
  -16.4333   -9.2440   37.6947 H   0  0  0  0  0  0  0  0  0  0  0  0
  -12.5703   -8.4609   39.4177 H   0  0  0  0  0  0  0  0  0  0  0  0
  -12.5588  -10.4705   41.1483 H   0  0  0  0  0  0  0  0  0  0  0  0
  -16.6622  -14.9320   36.8269 H   0  0  0  0  0  0  0  0  0  0  0  0
  -15.4824  -15.1542   38.0952 H   0  0  0  0  0  0  0  0  0  0  0  0
  -12.7572  -16.2880   36.7321 H   0  0  0  0  0  0  0  0  0  0  0  0
  -11.6558  -18.4052   35.5446 H   0  0  0  0  0  0  0  0  0  0  0  0
  -12.2062  -20.5401   34.2548 H   0  0  0  0  0  0  0  0  0  0  0  0
  -14.5959  -20.8979   33.6295 H   0  0  0  0  0  0  0  0  0  0  0  0
  -17.0841  -13.5132   35.3079 H   0  0  0  0  0  0  0  0  0  0  0  0
  1  2  2  0
  2  3  1  0
  3  4  2  0
  4  5  1  0
  5  6  2  0
  6  7  1  0
  7  8  2  0
  8  9  1  0
  4 10  1  0
 10 11  1  0
 11 12  1  0
 12 13  1  0
 13 14  2  0
 14 15  1  0
 15 16  1  0
 16 17  2  0
 17 18  1  0
 18 19  2  0
 19 20  1  0
 20 21  2  0
 10 22  2  0
 22  1  1  0
  9  5  1  0
 21 13  1  0
 20 15  1  0
  1 23  1  0
  2 24  1  0
  3 25  1  0
  7 26  1  0
  8 27  1  0
 12 28  1  0
 12 29  1  0
 14 30  1  0
 16 31  1  0
 17 32  1  0
 18 33  1  0
 22 34  1  0
M  END
>  <Energy>  (781) 
101.54968402560898

>  <compound_id>  (781) 
37813

>  <target_id>  (781) 
1

>  <reference_id>  (781) 
107

>  <inspiration_ids>  (781) 
[107, 7]

>  <energy_score>  (781) 
-41.80392210585316

>  <distance_score>  (781) 
8.579162132339395

>  <path>  (781) 
/opt/xchem-fragalysis-2/maxwin/BulkDock/SCRATCH/511022/C37813-P107/C37813-P107.minimised.mol

>  <scratch_subdir>  (781) 
/opt/xchem-fragalysis-2/maxwin/BulkDock/SCRATCH/511022/C37813-P107

>  <fragmenstein_runtime>  (781) 
8.35489797592163

>  <fragmenstein_outcome>  (781) 
too moved

>  <fragmenstein_mode>  (781) 
expansion

>  <fragmenstein_error>  (781) 


$$$$
C37813-P7
     RDKit          3D

 34 37  0  0  0  0  0  0  0  0999 V2000
  -14.7730  -11.3821   39.5502 C   0  0  0  0  0  0  0  0  0  0  0  0
  -14.3642  -10.0858   39.8045 C   0  0  0  0  0  0  0  0  0  0  0  0
  -14.6085   -9.1074   38.8532 C   0  0  0  0  0  0  0  0  0  0  0  0
  -15.2404   -9.3944   37.6130 C   0  0  0  0  0  0  0  0  0  0  0  0
  -15.6190   -8.1643   36.8651 C   0  0  0  0  0  0  0  0  0  0  0  0
  -15.1742   -6.9553   37.2018 N   0  0  0  0  0  0  0  0  0  0  0  0
  -15.8894   -5.9623   36.5672 C   0  0  0  0  0  0  0  0  0  0  0  0
  -16.8611   -6.4153   35.7098 C   0  0  0  0  0  0  0  0  0  0  0  0
  -16.8595   -8.1308   35.6755 S   0  0  0  0  0  0  0  0  0  0  0  0
  -15.5524  -10.7590   37.3150 C   0  0  0  0  0  0  0  0  0  0  0  0
  -15.9298  -11.1678   36.0464 O   0  0  0  0  0  0  0  0  0  0  0  0
  -16.7151  -12.3972   35.8894 C   0  0  0  0  0  0  0  0  0  0  0  0
  -15.9869  -13.7059   35.5708 C   0  0  0  0  0  0  0  0  0  0  0  0
  -15.0715  -14.0227   34.5838 C   0  0  0  0  0  0  0  0  0  0  0  0
  -14.7462  -15.3538   34.7580 N   0  0  0  0  0  0  0  0  0  0  0  0
  -13.7006  -16.1094   34.2329 C   0  0  0  0  0  0  0  0  0  0  0  0
  -13.4746  -17.3458   34.7035 C   0  0  0  0  0  0  0  0  0  0  0  0
  -14.4759  -17.8364   35.6756 C   0  0  0  0  0  0  0  0  0  0  0  0
  -15.4588  -17.1540   36.1736 N   0  0  0  0  0  0  0  0  0  0  0  0
  -15.5568  -15.8488   35.7789 C   0  0  0  0  0  0  0  0  0  0  0  0
  -16.2628  -14.8607   36.2979 N   0  0  0  0  0  0  0  0  0  0  0  0
  -15.3613  -11.7146   38.3258 C   0  0  0  0  0  0  0  0  0  0  0  0
  -14.6016  -12.1587   40.2926 H   0  0  0  0  0  0  0  0  0  0  0  0
  -13.8793   -9.8343   40.7432 H   0  0  0  0  0  0  0  0  0  0  0  0
  -14.3260   -8.0854   39.1063 H   0  0  0  0  0  0  0  0  0  0  0  0
  -15.6564   -4.9240   36.7669 H   0  0  0  0  0  0  0  0  0  0  0  0
  -17.5575   -5.8465   35.1161 H   0  0  0  0  0  0  0  0  0  0  0  0
  -17.3745  -12.2002   35.0349 H   0  0  0  0  0  0  0  0  0  0  0  0
  -17.3865  -12.5298   36.7472 H   0  0  0  0  0  0  0  0  0  0  0  0
  -14.6100  -13.4104   33.8239 H   0  0  0  0  0  0  0  0  0  0  0  0
  -13.0731  -15.6323   33.4902 H   0  0  0  0  0  0  0  0  0  0  0  0
  -12.6565  -17.9907   34.4195 H   0  0  0  0  0  0  0  0  0  0  0  0
  -14.3478  -18.8832   35.9790 H   0  0  0  0  0  0  0  0  0  0  0  0
  -15.6440  -12.7526   38.1900 H   0  0  0  0  0  0  0  0  0  0  0  0
  1  2  2  0
  2  3  1  0
  3  4  2  0
  4  5  1  0
  5  6  2  0
  6  7  1  0
  7  8  2  0
  8  9  1  0
  4 10  1  0
 10 11  1  0
 11 12  1  0
 12 13  1  0
 13 14  2  0
 14 15  1  0
 15 16  1  0
 16 17  2  0
 17 18  1  0
 18 19  2  0
 19 20  1  0
 20 21  2  0
 10 22  2  0
 22  1  1  0
  9  5  1  0
 21 13  1  0
 20 15  1  0
  1 23  1  0
  2 24  1  0
  3 25  1  0
  7 26  1  0
  8 27  1  0
 12 28  1  0
 12 29  1  0
 14 30  1  0
 16 31  1  0
 17 32  1  0
 18 33  1  0
 22 34  1  0
M  END
>  <Energy>  (782) 
99.481510287266872

>  <compound_id>  (782) 
37813

>  <target_id>  (782) 
1

>  <reference_id>  (782) 
7

>  <inspiration_ids>  (782) 
[107, 7]

>  <energy_score>  (782) 
-43.87209584419719

>  <distance_score>  (782) 
8.750079954155856

>  <path>  (782) 
/opt/xchem-fragalysis-2/maxwin/BulkDock/SCRATCH/511022/C37813-P7/C37813-P7.minimised.mol

>  <scratch_subdir>  (782) 
/opt/xchem-fragalysis-2/maxwin/BulkDock/SCRATCH/511022/C37813-P7

>  <fragmenstein_runtime>  (782) 
7.396173000335693

>  <fragmenstein_outcome>  (782) 
too moved

>  <fragmenstein_mode>  (782) 
expansion

>  <fragmenstein_error>  (782) 


$$$$
C54481-P107
     RDKit          3D

 34 37  0  0  0  0  0  0  0  0999 V2000
  -14.9005  -13.9281   39.5903 O   0  0  0  0  0  0  0  0  0  0  0  0
  -15.2146  -13.8184   38.4365 C   0  0  0  0  0  0  0  0  0  0  0  0
  -15.6608  -12.6711   37.6891 N   0  0  0  0  0  0  0  0  0  0  0  0
  -15.7752  -11.3113   38.0583 C   0  0  0  0  0  0  0  0  0  0  0  0
  -16.5087  -10.4143   37.2808 C   0  0  0  0  0  0  0  0  0  0  0  0
  -16.5328   -9.0308   37.5838 C   0  0  0  0  0  0  0  0  0  0  0  0
  -15.7541   -8.4870   38.6171 C   0  0  0  0  0  0  0  0  0  0  0  0
  -15.5972   -7.0239   38.7343 C   0  0  0  0  0  0  0  0  0  0  0  0
  -15.8765   -6.0823   37.8441 N   0  0  0  0  0  0  0  0  0  0  0  0
  -15.4426   -4.9135   38.4279 C   0  0  0  0  0  0  0  0  0  0  0  0
  -14.8764   -5.1914   39.6444 C   0  0  0  0  0  0  0  0  0  0  0  0
  -14.9617   -6.5384   39.8524 O   0  0  0  0  0  0  0  0  0  0  0  0
  -15.0713   -9.4005   39.4329 C   0  0  0  0  0  0  0  0  0  0  0  0
  -15.0990  -10.7923   39.1689 C   0  0  0  0  0  0  0  0  0  0  0  0
  -15.0280  -15.0546   37.5958 C   0  0  0  0  0  0  0  0  0  0  0  0
  -14.6021  -16.2669   38.1261 C   0  0  0  0  0  0  0  0  0  0  0  0
  -14.0945  -16.9717   37.0767 N   0  0  0  0  0  0  0  0  0  0  0  0
  -13.2600  -18.0774   37.0966 C   0  0  0  0  0  0  0  0  0  0  0  0
  -12.7920  -18.5639   35.9452 C   0  0  0  0  0  0  0  0  0  0  0  0
  -13.2996  -17.8642   34.7523 C   0  0  0  0  0  0  0  0  0  0  0  0
  -14.0985  -16.8431   34.7004 N   0  0  0  0  0  0  0  0  0  0  0  0
  -14.4573  -16.3106   35.9090 C   0  0  0  0  0  0  0  0  0  0  0  0
  -15.0418  -15.1535   36.2067 N   0  0  0  0  0  0  0  0  0  0  0  0
  -15.9183  -12.9672   36.7510 H   0  0  0  0  0  0  0  0  0  0  0  0
  -17.0611  -10.7689   36.4137 H   0  0  0  0  0  0  0  0  0  0  0  0
  -17.1071   -8.3670   36.9372 H   0  0  0  0  0  0  0  0  0  0  0  0
  -15.5490   -3.9550   37.9379 H   0  0  0  0  0  0  0  0  0  0  0  0
  -14.4046   -4.6120   40.4240 H   0  0  0  0  0  0  0  0  0  0  0  0
  -14.4599   -9.0444   40.2605 H   0  0  0  0  0  0  0  0  0  0  0  0
  -14.5074  -11.4463   39.8059 H   0  0  0  0  0  0  0  0  0  0  0  0
  -14.4506  -16.5718   39.1518 H   0  0  0  0  0  0  0  0  0  0  0  0
  -12.9796  -18.4638   38.0657 H   0  0  0  0  0  0  0  0  0  0  0  0
  -12.1098  -19.3899   35.8258 H   0  0  0  0  0  0  0  0  0  0  0  0
  -12.9505  -18.3073   33.8274 H   0  0  0  0  0  0  0  0  0  0  0  0
  1  2  2  0
  2  3  1  0
  3  4  1  0
  4  5  2  0
  5  6  1  0
  6  7  2  0
  7  8  1  0
  8  9  2  0
  9 10  1  0
 10 11  2  0
 11 12  1  0
  7 13  1  0
 13 14  2  0
  2 15  1  0
 15 16  2  0
 16 17  1  0
 17 18  1  0
 18 19  2  0
 19 20  1  0
 20 21  2  0
 21 22  1  0
 22 23  2  0
 14  4  1  0
 23 15  1  0
 12  8  1  0
 22 17  1  0
  3 24  1  0
  5 25  1  0
  6 26  1  0
 10 27  1  0
 11 28  1  0
 13 29  1  0
 14 30  1  0
 16 31  1  0
 18 32  1  0
 19 33  1  0
 20 34  1  0
M  END
>  <Energy>  (783) 
76.160431451204531

>  <compound_id>  (783) 
54481

>  <target_id>  (783) 
1

>  <reference_id>  (783) 
107

>  <inspiration_ids>  (783) 
[107, 7]

>  <energy_score>  (783) 
-31.847177941362204

>  <distance_score>  (783) 
8.024497940996792

>  <path>  (783) 
/opt/xchem-fragalysis-2/maxwin/BulkDock/SCRATCH/511022/C54481-P107/C54481-P107.minimised.mol

>  <scratch_subdir>  (783) 
/opt/xchem-fragalysis-2/maxwin/BulkDock/SCRATCH/511022/C54481-P107

>  <fragmenstein_runtime>  (783) 
7.718432664871216

>  <fragmenstein_outcome>  (783) 
too moved

>  <fragmenstein_mode>  (783) 
expansion

>  <fragmenstein_error>  (783) 


$$$$
C54481-P7
     RDKit          3D

 34 37  0  0  0  0  0  0  0  0999 V2000
  -16.0836  -15.6526   37.3311 O   0  0  0  0  0  0  0  0  0  0  0  0
  -15.7329  -15.5881   36.1870 C   0  0  0  0  0  0  0  0  0  0  0  0
  -15.5817  -14.4321   35.2991 N   0  0  0  0  0  0  0  0  0  0  0  0
  -15.7145  -13.0338   35.5535 C   0  0  0  0  0  0  0  0  0  0  0  0
  -16.0046  -12.5079   36.8206 C   0  0  0  0  0  0  0  0  0  0  0  0
  -15.9505  -11.1164   37.0816 C   0  0  0  0  0  0  0  0  0  0  0  0
  -15.6701  -10.1872   36.0722 C   0  0  0  0  0  0  0  0  0  0  0  0
  -15.6437   -8.7507   36.3961 C   0  0  0  0  0  0  0  0  0  0  0  0
  -15.1498   -8.1371   37.4606 N   0  0  0  0  0  0  0  0  0  0  0  0
  -15.5511   -6.8296   37.3204 C   0  0  0  0  0  0  0  0  0  0  0  0
  -16.2760   -6.6903   36.1664 C   0  0  0  0  0  0  0  0  0  0  0  0
  -16.3341   -7.9109   35.5538 O   0  0  0  0  0  0  0  0  0  0  0  0
  -15.4485  -10.7069   34.7860 C   0  0  0  0  0  0  0  0  0  0  0  0
  -15.4580  -12.1084   34.5328 C   0  0  0  0  0  0  0  0  0  0  0  0
  -15.2781  -16.8864   35.5576 C   0  0  0  0  0  0  0  0  0  0  0  0
  -14.0219  -17.4750   35.6295 C   0  0  0  0  0  0  0  0  0  0  0  0
  -14.1289  -18.7114   35.0261 N   0  0  0  0  0  0  0  0  0  0  0  0
  -13.1696  -19.6820   34.7668 C   0  0  0  0  0  0  0  0  0  0  0  0
  -13.5092  -20.8049   34.1090 C   0  0  0  0  0  0  0  0  0  0  0  0
  -14.9460  -20.8909   33.7210 C   0  0  0  0  0  0  0  0  0  0  0  0
  -15.8469  -19.9752   33.9297 N   0  0  0  0  0  0  0  0  0  0  0  0
  -15.4495  -18.8662   34.6250 C   0  0  0  0  0  0  0  0  0  0  0  0
  -16.1347  -17.7748   34.9130 N   0  0  0  0  0  0  0  0  0  0  0  0
  -15.3434  -14.7574   34.3672 H   0  0  0  0  0  0  0  0  0  0  0  0
  -16.2463  -13.1683   37.6518 H   0  0  0  0  0  0  0  0  0  0  0  0
  -16.1420  -10.7683   38.0966 H   0  0  0  0  0  0  0  0  0  0  0  0
  -15.3008   -6.0753   38.0523 H   0  0  0  0  0  0  0  0  0  0  0  0
  -16.7715   -5.8751   35.6628 H   0  0  0  0  0  0  0  0  0  0  0  0
  -15.2390  -10.0305   33.9580 H   0  0  0  0  0  0  0  0  0  0  0  0
  -15.2434  -12.4462   33.5191 H   0  0  0  0  0  0  0  0  0  0  0  0
  -13.0922  -17.1542   36.0755 H   0  0  0  0  0  0  0  0  0  0  0  0
  -12.1730  -19.4744   35.1154 H   0  0  0  0  0  0  0  0  0  0  0  0
  -12.8417  -21.6225   33.8754 H   0  0  0  0  0  0  0  0  0  0  0  0
  -15.2372  -21.8146   33.1944 H   0  0  0  0  0  0  0  0  0  0  0  0
  1  2  2  0
  2  3  1  0
  3  4  1  0
  4  5  2  0
  5  6  1  0
  6  7  2  0
  7  8  1  0
  8  9  2  0
  9 10  1  0
 10 11  2  0
 11 12  1  0
  7 13  1  0
 13 14  2  0
  2 15  1  0
 15 16  2  0
 16 17  1  0
 17 18  1  0
 18 19  2  0
 19 20  1  0
 20 21  2  0
 21 22  1  0
 22 23  2  0
 14  4  1  0
 23 15  1  0
 12  8  1  0
 22 17  1  0
  3 24  1  0
  5 25  1  0
  6 26  1  0
 10 27  1  0
 11 28  1  0
 13 29  1  0
 14 30  1  0
 16 31  1  0
 18 32  1  0
 19 33  1  0
 20 34  1  0
M  END
>  <Energy>  (784) 
88.107704753537064

>  <compound_id>  (784) 
54481

>  <target_id>  (784) 
1

>  <reference_id>  (784) 
7

>  <inspiration_ids>  (784) 
[107, 7]

>  <energy_score>  (784) 
-19.89990463903203

>  <distance_score>  (784) 
7.551265692648132

>  <path>  (784) 
/opt/xchem-fragalysis-2/maxwin/BulkDock/SCRATCH/511022/C54481-P7/C54481-P7.minimised.mol

>  <scratch_subdir>  (784) 
/opt/xchem-fragalysis-2/maxwin/BulkDock/SCRATCH/511022/C54481-P7

>  <fragmenstein_runtime>  (784) 
7.861189126968384

>  <fragmenstein_outcome>  (784) 
too moved

>  <fragmenstein_mode>  (784) 
expansion

>  <fragmenstein_error>  (784) 


$$$$
C76607-P107
     RDKit          3D

 23 24  0  0  0  0  0  0  0  0999 V2000
  -14.5771  -10.2768   37.2302 F   0  0  0  0  0  0  0  0  0  0  0  0
  -14.9676  -11.3628   36.4870 C   0  0  0  0  0  0  0  0  0  0  0  0
  -15.4323  -12.5011   37.3948 C   0  0  0  0  0  0  0  0  0  0  0  0
  -16.7523  -11.7883   38.4340 Cl  0  0  0  0  0  0  0  0  0  0  0  0
  -15.9792  -13.8108   36.7066 C   0  0  0  0  0  0  0  0  0  0  0  0
  -15.0230  -14.6842   35.8987 C   0  0  0  0  0  0  0  0  0  0  0  0
  -14.1568  -14.3071   34.8956 C   0  0  0  0  0  0  0  0  0  0  0  0
  -13.4339  -15.3512   34.4004 N   0  0  0  0  0  0  0  0  0  0  0  0
  -13.9850  -16.4334   34.8963 C   0  0  0  0  0  0  0  0  0  0  0  0
  -13.7775  -17.7326   34.5193 N   0  0  0  0  0  0  0  0  0  0  0  0
  -14.5095  -18.6266   35.0999 C   0  0  0  0  0  0  0  0  0  0  0  0
  -15.5548  -18.3649   36.1205 C   0  0  0  0  0  0  0  0  0  0  0  0
  -15.7377  -17.0744   36.4447 C   0  0  0  0  0  0  0  0  0  0  0  0
  -14.9679  -16.0846   35.8370 N   0  0  0  0  0  0  0  0  0  0  0  0
  -14.1233  -11.6478   35.8653 H   0  0  0  0  0  0  0  0  0  0  0  0
  -15.7827  -11.0434   35.8306 H   0  0  0  0  0  0  0  0  0  0  0  0
  -14.6587  -12.7631   38.1176 H   0  0  0  0  0  0  0  0  0  0  0  0
  -16.4174  -14.4368   37.4938 H   0  0  0  0  0  0  0  0  0  0  0  0
  -16.8044  -13.5306   36.0386 H   0  0  0  0  0  0  0  0  0  0  0  0
  -14.0120  -13.3096   34.5047 H   0  0  0  0  0  0  0  0  0  0  0  0
  -14.3813  -19.6812   34.8095 H   0  0  0  0  0  0  0  0  0  0  0  0
  -16.1269  -19.1850   36.5291 H   0  0  0  0  0  0  0  0  0  0  0  0
  -16.4962  -16.7518   37.1457 H   0  0  0  0  0  0  0  0  0  0  0  0
  1  2  1  0
  2  3  1  0
  3  4  1  0
  3  5  1  0
  5  6  1  0
  6  7  2  0
  7  8  1  0
  8  9  2  0
  9 10  1  0
 10 11  2  0
 11 12  1  0
 12 13  2  0
 13 14  1  0
 14  6  1  0
 14  9  1  0
  2 15  1  0
  2 16  1  0
  3 17  1  0
  5 18  1  0
  5 19  1  0
  7 20  1  0
 11 21  1  0
 12 22  1  0
 13 23  1  0
M  END
>  <Energy>  (785) 
49.554393192818019

>  <compound_id>  (785) 
76607

>  <target_id>  (785) 
1

>  <reference_id>  (785) 
107

>  <inspiration_ids>  (785) 
[107, 7]

>  <energy_score>  (785) 
-8.798814378231043

>  <distance_score>  (785) 
9.167521161640877

>  <path>  (785) 
/opt/xchem-fragalysis-2/maxwin/BulkDock/SCRATCH/511022/C76607-P107/C76607-P107.minimised.mol

>  <scratch_subdir>  (785) 
/opt/xchem-fragalysis-2/maxwin/BulkDock/SCRATCH/511022/C76607-P107

>  <fragmenstein_runtime>  (785) 
4.894214868545532

>  <fragmenstein_outcome>  (785) 
too moved

>  <fragmenstein_mode>  (785) 
expansion

>  <fragmenstein_error>  (785) 


$$$$
C76607-P7
     RDKit          3D

 23 24  0  0  0  0  0  0  0  0999 V2000
  -15.8140   -9.9055   34.7161 F   0  0  0  0  0  0  0  0  0  0  0  0
  -16.0791  -10.2901   35.9932 C   0  0  0  0  0  0  0  0  0  0  0  0
  -15.5083  -11.6903   36.2750 C   0  0  0  0  0  0  0  0  0  0  0  0
  -15.3206  -11.8064   38.0648 Cl  0  0  0  0  0  0  0  0  0  0  0  0
  -16.3702  -12.9220   35.7521 C   0  0  0  0  0  0  0  0  0  0  0  0
  -15.5466  -14.1200   35.2715 C   0  0  0  0  0  0  0  0  0  0  0  0
  -14.4996  -14.0649   34.3779 C   0  0  0  0  0  0  0  0  0  0  0  0
  -13.8233  -15.2469   34.2920 N   0  0  0  0  0  0  0  0  0  0  0  0
  -14.6069  -16.1433   34.8452 C   0  0  0  0  0  0  0  0  0  0  0  0
  -14.5130  -17.5059   34.7682 N   0  0  0  0  0  0  0  0  0  0  0  0
  -15.4155  -18.1717   35.4146 C   0  0  0  0  0  0  0  0  0  0  0  0
  -16.5196  -17.5881   36.2204 C   0  0  0  0  0  0  0  0  0  0  0  0
  -16.5908  -16.2461   36.2378 C   0  0  0  0  0  0  0  0  0  0  0  0
  -15.6583  -15.4944   35.5336 N   0  0  0  0  0  0  0  0  0  0  0  0
  -17.1636  -10.2650   36.1382 H   0  0  0  0  0  0  0  0  0  0  0  0
  -15.6258   -9.5302   36.6379 H   0  0  0  0  0  0  0  0  0  0  0  0
  -14.4977  -11.7297   35.8569 H   0  0  0  0  0  0  0  0  0  0  0  0
  -17.0906  -13.2406   36.5134 H   0  0  0  0  0  0  0  0  0  0  0  0
  -16.9532  -12.5843   34.8850 H   0  0  0  0  0  0  0  0  0  0  0  0
  -14.1681  -13.1787   33.8628 H   0  0  0  0  0  0  0  0  0  0  0  0
  -15.4004  -19.2717   35.3676 H   0  0  0  0  0  0  0  0  0  0  0  0
  -17.2210  -18.2407   36.7206 H   0  0  0  0  0  0  0  0  0  0  0  0
  -17.3789  -15.7084   36.7494 H   0  0  0  0  0  0  0  0  0  0  0  0
  1  2  1  0
  2  3  1  0
  3  4  1  0
  3  5  1  0
  5  6  1  0
  6  7  2  0
  7  8  1  0
  8  9  2  0
  9 10  1  0
 10 11  2  0
 11 12  1  0
 12 13  2  0
 13 14  1  0
 14  6  1  0
 14  9  1  0
  2 15  1  0
  2 16  1  0
  3 17  1  0
  5 18  1  0
  5 19  1  0
  7 20  1  0
 11 21  1  0
 12 22  1  0
 13 23  1  0
M  END
>  <Energy>  (786) 
51.183314548810181

>  <compound_id>  (786) 
76607

>  <target_id>  (786) 
1

>  <reference_id>  (786) 
7

>  <inspiration_ids>  (786) 
[107, 7]

>  <energy_score>  (786) 
-7.1698930222407995

>  <distance_score>  (786) 
9.608024111454894

>  <path>  (786) 
/opt/xchem-fragalysis-2/maxwin/BulkDock/SCRATCH/511022/C76607-P7/C76607-P7.minimised.mol

>  <scratch_subdir>  (786) 
/opt/xchem-fragalysis-2/maxwin/BulkDock/SCRATCH/511022/C76607-P7

>  <fragmenstein_runtime>  (786) 
4.213785648345947

>  <fragmenstein_outcome>  (786) 
too moved

>  <fragmenstein_mode>  (786) 
expansion

>  <fragmenstein_error>  (786) 


$$$$
C76609-P107
     RDKit          3D

 25 26  0  0  0  0  0  0  0  0999 V2000
  -15.0414  -12.0962   38.5890 C   0  0  0  0  0  0  0  0  0  0  0  0
  -15.3390  -11.9765   37.0948 C   0  0  0  0  0  0  0  0  0  0  0  0
  -16.0961  -10.6589   36.9807 C   0  0  0  0  0  0  0  0  0  0  0  0
  -17.0677  -10.4402   36.2673 O   0  0  0  0  0  0  0  0  0  0  0  0
  -16.0740  -13.2041   36.4783 C   0  0  0  0  0  0  0  0  0  0  0  0
  -15.5323  -14.6122   36.7574 C   0  0  0  0  0  0  0  0  0  0  0  0
  -15.8711  -15.4847   37.7787 C   0  0  0  0  0  0  0  0  0  0  0  0
  -15.2555  -16.7021   37.6626 N   0  0  0  0  0  0  0  0  0  0  0  0
  -14.5582  -16.6464   36.5516 C   0  0  0  0  0  0  0  0  0  0  0  0
  -13.7815  -17.6265   35.9992 N   0  0  0  0  0  0  0  0  0  0  0  0
  -13.1534  -17.3070   34.9124 C   0  0  0  0  0  0  0  0  0  0  0  0
  -13.2400  -15.9989   34.2106 C   0  0  0  0  0  0  0  0  0  0  0  0
  -14.0291  -15.0805   34.7826 C   0  0  0  0  0  0  0  0  0  0  0  0
  -14.6883  -15.3800   35.9612 N   0  0  0  0  0  0  0  0  0  0  0  0
  -14.4158  -11.2664   38.9375 H   0  0  0  0  0  0  0  0  0  0  0  0
  -14.5213  -13.0234   38.8318 H   0  0  0  0  0  0  0  0  0  0  0  0
  -15.9672  -12.0787   39.1763 H   0  0  0  0  0  0  0  0  0  0  0  0
  -14.4160  -11.8130   36.5356 H   0  0  0  0  0  0  0  0  0  0  0  0
  -15.6694   -9.8290   37.5720 H   0  0  0  0  0  0  0  0  0  0  0  0
  -17.1164  -13.1895   36.8271 H   0  0  0  0  0  0  0  0  0  0  0  0
  -16.1392  -13.0620   35.3917 H   0  0  0  0  0  0  0  0  0  0  0  0
  -16.5530  -15.2896   38.5970 H   0  0  0  0  0  0  0  0  0  0  0  0
  -12.5044  -18.0661   34.4543 H   0  0  0  0  0  0  0  0  0  0  0  0
  -12.7072  -15.8204   33.2894 H   0  0  0  0  0  0  0  0  0  0  0  0
  -14.1906  -14.0969   34.3597 H   0  0  0  0  0  0  0  0  0  0  0  0
  1  2  1  0
  2  3  1  0
  3  4  2  0
  2  5  1  0
  5  6  1  0
  6  7  2  0
  7  8  1  0
  8  9  2  0
  9 10  1  0
 10 11  2  0
 11 12  1  0
 12 13  2  0
 13 14  1  0
 14  6  1  0
 14  9  1  0
  1 15  1  0
  1 16  1  0
  1 17  1  0
  2 18  1  0
  3 19  1  0
  5 20  1  0
  5 21  1  0
  7 22  1  0
 11 23  1  0
 12 24  1  0
 13 25  1  0
M  END
>  <Energy>  (787) 
32.734912007616565

>  <compound_id>  (787) 
76609

>  <target_id>  (787) 
1

>  <reference_id>  (787) 
107

>  <inspiration_ids>  (787) 
[107, 7]

>  <energy_score>  (787) 
-37.3394202438822

>  <distance_score>  (787) 
9.560043390808437

>  <path>  (787) 
/opt/xchem-fragalysis-2/maxwin/BulkDock/SCRATCH/511022/C76609-P107/C76609-P107.minimised.mol

>  <scratch_subdir>  (787) 
/opt/xchem-fragalysis-2/maxwin/BulkDock/SCRATCH/511022/C76609-P107

>  <fragmenstein_runtime>  (787) 
6.582037687301636

>  <fragmenstein_outcome>  (787) 
too moved

>  <fragmenstein_mode>  (787) 
expansion

>  <fragmenstein_error>  (787) 


$$$$
C76609-P7
     RDKit          3D

 25 26  0  0  0  0  0  0  0  0999 V2000
  -15.4187  -11.3329   37.7396 C   0  0  0  0  0  0  0  0  0  0  0  0
  -15.5026  -11.7492   36.2661 C   0  0  0  0  0  0  0  0  0  0  0  0
  -16.0588  -10.5655   35.4752 C   0  0  0  0  0  0  0  0  0  0  0  0
  -16.3341   -9.4680   35.9556 O   0  0  0  0  0  0  0  0  0  0  0  0
  -16.3368  -13.0893   36.0390 C   0  0  0  0  0  0  0  0  0  0  0  0
  -15.5556  -14.2252   35.3696 C   0  0  0  0  0  0  0  0  0  0  0  0
  -14.5684  -14.1141   34.4126 C   0  0  0  0  0  0  0  0  0  0  0  0
  -13.8744  -15.2810   34.2557 N   0  0  0  0  0  0  0  0  0  0  0  0
  -14.5980  -16.2131   34.8288 C   0  0  0  0  0  0  0  0  0  0  0  0
  -14.4756  -17.5696   34.7040 N   0  0  0  0  0  0  0  0  0  0  0  0
  -15.3398  -18.2791   35.3563 C   0  0  0  0  0  0  0  0  0  0  0  0
  -16.4289  -17.7495   36.2176 C   0  0  0  0  0  0  0  0  0  0  0  0
  -16.5270  -16.4106   36.2842 C   0  0  0  0  0  0  0  0  0  0  0  0
  -15.6341  -15.6147   35.5761 N   0  0  0  0  0  0  0  0  0  0  0  0
  -16.4107  -11.0904   38.1370 H   0  0  0  0  0  0  0  0  0  0  0  0
  -14.7829  -10.4492   37.8644 H   0  0  0  0  0  0  0  0  0  0  0  0
  -15.0002  -12.1328   38.3560 H   0  0  0  0  0  0  0  0  0  0  0  0
  -14.4759  -11.8779   35.9062 H   0  0  0  0  0  0  0  0  0  0  0  0
  -16.1642  -10.7402   34.3896 H   0  0  0  0  0  0  0  0  0  0  0  0
  -16.7035  -13.4521   37.0064 H   0  0  0  0  0  0  0  0  0  0  0  0
  -17.2140  -12.8796   35.4151 H   0  0  0  0  0  0  0  0  0  0  0  0
  -14.2579  -13.2083   33.9141 H   0  0  0  0  0  0  0  0  0  0  0  0
  -15.3018  -19.3758   35.2669 H   0  0  0  0  0  0  0  0  0  0  0  0
  -17.0979  -18.4352   36.7180 H   0  0  0  0  0  0  0  0  0  0  0  0
  -17.3077  -15.9075   36.8407 H   0  0  0  0  0  0  0  0  0  0  0  0
  1  2  1  0
  2  3  1  0
  3  4  2  0
  2  5  1  0
  5  6  1  0
  6  7  2  0
  7  8  1  0
  8  9  2  0
  9 10  1  0
 10 11  2  0
 11 12  1  0
 12 13  2  0
 13 14  1  0
 14  6  1  0
 14  9  1  0
  1 15  1  0
  1 16  1  0
  1 17  1  0
  2 18  1  0
  3 19  1  0
  5 20  1  0
  5 21  1  0
  7 22  1  0
 11 23  1  0
 12 24  1  0
 13 25  1  0
M  END
>  <Energy>  (788) 
38.540487501479859

>  <compound_id>  (788) 
76609

>  <target_id>  (788) 
1

>  <reference_id>  (788) 
7

>  <inspiration_ids>  (788) 
[107, 7]

>  <energy_score>  (788) 
-31.533844750017984

>  <distance_score>  (788) 
9.342977364982053

>  <path>  (788) 
/opt/xchem-fragalysis-2/maxwin/BulkDock/SCRATCH/511022/C76609-P7/C76609-P7.minimised.mol

>  <scratch_subdir>  (788) 
/opt/xchem-fragalysis-2/maxwin/BulkDock/SCRATCH/511022/C76609-P7

>  <fragmenstein_runtime>  (788) 
7.422601222991943

>  <fragmenstein_outcome>  (788) 
too moved

>  <fragmenstein_mode>  (788) 
expansion

>  <fragmenstein_error>  (788) 


$$$$
C76614-P107
     RDKit          3D

 32 33  0  0  0  0  0  0  0  0999 V2000
  -15.8100  -11.6692   37.4056 C   0  0  0  0  0  0  0  0  0  0  0  0
  -15.7516  -13.0766   37.1577 O   0  0  0  0  0  0  0  0  0  0  0  0
  -15.7588  -13.4540   35.7684 C   0  0  0  0  0  0  0  0  0  0  0  0
  -14.6056  -12.8541   34.9788 C   0  0  0  0  0  0  0  0  0  0  0  0
  -15.8947  -15.0450   35.5329 C   0  0  0  0  0  0  0  0  0  0  0  0
  -14.7802  -15.9591   36.0133 N   0  0  0  0  0  0  0  0  0  0  0  0
  -14.7574  -16.0044   37.4941 C   0  0  0  0  0  0  0  0  0  0  0  0
  -14.4022  -17.1931   35.3862 C   0  0  0  0  0  0  0  0  0  0  0  0
  -13.0973  -17.5069   35.2455 C   0  0  0  0  0  0  0  0  0  0  0  0
  -12.7535  -18.8515   34.7246 C   0  0  0  0  0  0  0  0  0  0  0  0
  -13.5929  -19.7648   34.3630 N   0  0  0  0  0  0  0  0  0  0  0  0
  -14.9062  -19.4376   34.4710 C   0  0  0  0  0  0  0  0  0  0  0  0
  -15.9395  -20.1511   34.0834 N   0  0  0  0  0  0  0  0  0  0  0  0
  -17.0423  -19.4419   34.4473 C   0  0  0  0  0  0  0  0  0  0  0  0
  -16.6898  -18.2513   35.0344 C   0  0  0  0  0  0  0  0  0  0  0  0
  -15.3189  -18.2037   35.0025 N   0  0  0  0  0  0  0  0  0  0  0  0
  -16.1046  -11.5263   38.4489 H   0  0  0  0  0  0  0  0  0  0  0  0
  -16.5527  -11.1862   36.7639 H   0  0  0  0  0  0  0  0  0  0  0  0
  -14.8268  -11.2124   37.2721 H   0  0  0  0  0  0  0  0  0  0  0  0
  -16.6858  -13.0340   35.3541 H   0  0  0  0  0  0  0  0  0  0  0  0
  -14.8554  -12.8115   33.9159 H   0  0  0  0  0  0  0  0  0  0  0  0
  -14.3342  -11.8505   35.2966 H   0  0  0  0  0  0  0  0  0  0  0  0
  -13.7359  -13.4952   35.0888 H   0  0  0  0  0  0  0  0  0  0  0  0
  -16.8218  -15.3567   36.0286 H   0  0  0  0  0  0  0  0  0  0  0  0
  -16.0228  -15.2053   34.4559 H   0  0  0  0  0  0  0  0  0  0  0  0
  -15.6775  -16.4614   37.8751 H   0  0  0  0  0  0  0  0  0  0  0  0
  -14.6581  -15.0092   37.9251 H   0  0  0  0  0  0  0  0  0  0  0  0
  -13.9110  -16.5979   37.8576 H   0  0  0  0  0  0  0  0  0  0  0  0
  -12.2859  -16.8540   35.5176 H   0  0  0  0  0  0  0  0  0  0  0  0
  -11.6770  -19.0600   34.6478 H   0  0  0  0  0  0  0  0  0  0  0  0
  -18.0385  -19.8278   34.2715 H   0  0  0  0  0  0  0  0  0  0  0  0
  -17.2895  -17.4588   35.4488 H   0  0  0  0  0  0  0  0  0  0  0  0
  1  2  1  0
  2  3  1  0
  3  4  1  0
  3  5  1  0
  5  6  1  0
  6  7  1  0
  6  8  1  0
  8  9  2  0
  9 10  1  0
 10 11  2  0
 11 12  1  0
 12 13  2  0
 13 14  1  0
 14 15  2  0
 15 16  1  0
 16  8  1  0
 16 12  1  0
  1 17  1  0
  1 18  1  0
  1 19  1  0
  3 20  1  0
  4 21  1  0
  4 22  1  0
  4 23  1  0
  5 24  1  0
  5 25  1  0
  7 26  1  0
  7 27  1  0
  7 28  1  0
  9 29  1  0
 10 30  1  0
 14 31  1  0
 15 32  1  0
M  END
>  <Energy>  (789) 
94.095699438603191

>  <compound_id>  (789) 
76614

>  <target_id>  (789) 
1

>  <reference_id>  (789) 
107

>  <inspiration_ids>  (789) 
[107, 7]

>  <energy_score>  (789) 
-22.572348623587146

>  <distance_score>  (789) 
8.587669446633377

>  <path>  (789) 
/opt/xchem-fragalysis-2/maxwin/BulkDock/SCRATCH/511022/C76614-P107/C76614-P107.minimised.mol

>  <scratch_subdir>  (789) 
/opt/xchem-fragalysis-2/maxwin/BulkDock/SCRATCH/511022/C76614-P107

>  <fragmenstein_runtime>  (789) 
7.220126628875732

>  <fragmenstein_outcome>  (789) 
too moved

>  <fragmenstein_mode>  (789) 
expansion

>  <fragmenstein_error>  (789) 


$$$$
C76614-P7
     RDKit          3D

 32 33  0  0  0  0  0  0  0  0999 V2000
  -14.5551  -11.4125   35.1798 C   0  0  0  0  0  0  0  0  0  0  0  0
  -14.6505  -12.8419   35.0716 O   0  0  0  0  0  0  0  0  0  0  0  0
  -15.9621  -13.3693   35.3422 C   0  0  0  0  0  0  0  0  0  0  0  0
  -16.5469  -12.8371   36.6558 C   0  0  0  0  0  0  0  0  0  0  0  0
  -16.0900  -14.9676   35.1305 C   0  0  0  0  0  0  0  0  0  0  0  0
  -15.2329  -15.9359   35.9321 N   0  0  0  0  0  0  0  0  0  0  0  0
  -15.7394  -16.0875   37.3224 C   0  0  0  0  0  0  0  0  0  0  0  0
  -14.7480  -17.1673   35.3669 C   0  0  0  0  0  0  0  0  0  0  0  0
  -13.4273  -17.4171   35.2688 C   0  0  0  0  0  0  0  0  0  0  0  0
  -13.0147  -18.7736   34.8372 C   0  0  0  0  0  0  0  0  0  0  0  0
  -13.7995  -19.7503   34.5210 N   0  0  0  0  0  0  0  0  0  0  0  0
  -15.1281  -19.4792   34.5601 C   0  0  0  0  0  0  0  0  0  0  0  0
  -16.1173  -20.2459   34.1590 N   0  0  0  0  0  0  0  0  0  0  0  0
  -17.2601  -19.5559   34.4211 C   0  0  0  0  0  0  0  0  0  0  0  0
  -16.9765  -18.3218   34.9524 C   0  0  0  0  0  0  0  0  0  0  0  0
  -15.6071  -18.2393   35.0070 N   0  0  0  0  0  0  0  0  0  0  0  0
  -14.5882  -11.1041   36.2280 H   0  0  0  0  0  0  0  0  0  0  0  0
  -15.3478  -10.9278   34.6024 H   0  0  0  0  0  0  0  0  0  0  0  0
  -13.5898  -11.1054   34.7709 H   0  0  0  0  0  0  0  0  0  0  0  0
  -16.6068  -12.9655   34.5480 H   0  0  0  0  0  0  0  0  0  0  0  0
  -16.8213  -11.7809   36.5571 H   0  0  0  0  0  0  0  0  0  0  0  0
  -15.8413  -12.8948   37.4857 H   0  0  0  0  0  0  0  0  0  0  0  0
  -17.4590  -13.3791   36.9244 H   0  0  0  0  0  0  0  0  0  0  0  0
  -17.1440  -15.2325   35.2809 H   0  0  0  0  0  0  0  0  0  0  0  0
  -15.8784  -15.1655   34.0792 H   0  0  0  0  0  0  0  0  0  0  0  0
  -15.0414  -16.6852   37.9197 H   0  0  0  0  0  0  0  0  0  0  0  0
  -15.8410  -15.1232   37.8203 H   0  0  0  0  0  0  0  0  0  0  0  0
  -16.7172  -16.5796   37.3340 H   0  0  0  0  0  0  0  0  0  0  0  0
  -12.6436  -16.7280   35.5299 H   0  0  0  0  0  0  0  0  0  0  0  0
  -11.9318  -18.9263   34.7754 H   0  0  0  0  0  0  0  0  0  0  0  0
  -18.2325  -19.9825   34.2093 H   0  0  0  0  0  0  0  0  0  0  0  0
  -17.6198  -17.5170   35.2677 H   0  0  0  0  0  0  0  0  0  0  0  0
  1  2  1  0
  2  3  1  0
  3  4  1  0
  3  5  1  0
  5  6  1  0
  6  7  1  0
  6  8  1  0
  8  9  2  0
  9 10  1  0
 10 11  2  0
 11 12  1  0
 12 13  2  0
 13 14  1  0
 14 15  2  0
 15 16  1  0
 16  8  1  0
 16 12  1  0
  1 17  1  0
  1 18  1  0
  1 19  1  0
  3 20  1  0
  4 21  1  0
  4 22  1  0
  4 23  1  0
  5 24  1  0
  5 25  1  0
  7 26  1  0
  7 27  1  0
  7 28  1  0
  9 29  1  0
 10 30  1  0
 14 31  1  0
 15 32  1  0
M  END
>  <Energy>  (790) 
98.666723025648679

>  <compound_id>  (790) 
76614

>  <target_id>  (790) 
1

>  <reference_id>  (790) 
7

>  <inspiration_ids>  (790) 
[107, 7]

>  <energy_score>  (790) 
-18.00132503654251

>  <distance_score>  (790) 
8.69760989382721

>  <path>  (790) 
/opt/xchem-fragalysis-2/maxwin/BulkDock/SCRATCH/511022/C76614-P7/C76614-P7.minimised.mol

>  <scratch_subdir>  (790) 
/opt/xchem-fragalysis-2/maxwin/BulkDock/SCRATCH/511022/C76614-P7

>  <fragmenstein_runtime>  (790) 
7.8235015869140625

>  <fragmenstein_outcome>  (790) 
too moved

>  <fragmenstein_mode>  (790) 
expansion

>  <fragmenstein_error>  (790) 


$$$$
C76618-P107
     RDKit          3D

 23 24  0  0  0  0  0  0  0  0999 V2000
  -14.4688  -10.8563   37.4823 F   0  0  0  0  0  0  0  0  0  0  0  0
  -14.9274  -11.4872   36.3670 C   0  0  0  0  0  0  0  0  0  0  0  0
  -15.9274  -12.6107   36.6447 C   0  0  0  0  0  0  0  0  0  0  0  0
  -17.1818  -11.8703   38.0058 Br  0  0  0  0  0  0  0  0  0  0  0  0
  -15.4641  -14.0304   37.0965 C   0  0  0  0  0  0  0  0  0  0  0  0
  -14.8353  -14.9277   36.0311 C   0  0  0  0  0  0  0  0  0  0  0  0
  -14.1270  -14.5783   34.9007 C   0  0  0  0  0  0  0  0  0  0  0  0
  -13.5778  -15.6548   34.2747 N   0  0  0  0  0  0  0  0  0  0  0  0
  -14.0849  -16.7104   34.8579 C   0  0  0  0  0  0  0  0  0  0  0  0
  -14.0375  -18.0048   34.4196 N   0  0  0  0  0  0  0  0  0  0  0  0
  -14.7264  -18.8632   35.0967 C   0  0  0  0  0  0  0  0  0  0  0  0
  -15.5319  -18.5681   36.3103 C   0  0  0  0  0  0  0  0  0  0  0  0
  -15.5573  -17.2812   36.6926 C   0  0  0  0  0  0  0  0  0  0  0  0
  -14.8627  -16.3258   35.9569 N   0  0  0  0  0  0  0  0  0  0  0  0
  -14.0872  -11.8017   35.7523 H   0  0  0  0  0  0  0  0  0  0  0  0
  -15.4804  -10.7388   35.8065 H   0  0  0  0  0  0  0  0  0  0  0  0
  -16.5581  -12.7382   35.7557 H   0  0  0  0  0  0  0  0  0  0  0  0
  -14.7778  -13.9404   37.9438 H   0  0  0  0  0  0  0  0  0  0  0  0
  -16.3423  -14.5657   37.4806 H   0  0  0  0  0  0  0  0  0  0  0  0
  -13.9657  -13.5839   34.5096 H   0  0  0  0  0  0  0  0  0  0  0  0
  -14.7480  -19.9092   34.7518 H   0  0  0  0  0  0  0  0  0  0  0  0
  -16.0648  -19.3644   36.8093 H   0  0  0  0  0  0  0  0  0  0  0  0
  -16.1311  -16.9356   37.5418 H   0  0  0  0  0  0  0  0  0  0  0  0
  1  2  1  0
  2  3  1  0
  3  4  1  0
  3  5  1  0
  5  6  1  0
  6  7  2  0
  7  8  1  0
  8  9  2  0
  9 10  1  0
 10 11  2  0
 11 12  1  0
 12 13  2  0
 13 14  1  0
 14  6  1  0
 14  9  1  0
  2 15  1  0
  2 16  1  0
  3 17  1  0
  5 18  1  0
  5 19  1  0
  7 20  1  0
 11 21  1  0
 12 22  1  0
 13 23  1  0
M  END
>  <Energy>  (791) 
49.878559519339333

>  <compound_id>  (791) 
76618

>  <target_id>  (791) 
1

>  <reference_id>  (791) 
107

>  <inspiration_ids>  (791) 
[107, 7]

>  <energy_score>  (791) 
-14.958754813065923

>  <distance_score>  (791) 
9.13624150922511

>  <path>  (791) 
/opt/xchem-fragalysis-2/maxwin/BulkDock/SCRATCH/511022/C76618-P107/C76618-P107.minimised.mol

>  <scratch_subdir>  (791) 
/opt/xchem-fragalysis-2/maxwin/BulkDock/SCRATCH/511022/C76618-P107

>  <fragmenstein_runtime>  (791) 
7.180697917938232

>  <fragmenstein_outcome>  (791) 
too moved

>  <fragmenstein_mode>  (791) 
expansion

>  <fragmenstein_error>  (791) 


$$$$
C76618-P7
     RDKit          3D

 23 24  0  0  0  0  0  0  0  0999 V2000
  -14.4510  -10.2622   27.9150 F   0  0  0  0  0  0  0  0  0  0  0  0
  -14.5958  -10.0929   26.5784 C   0  0  0  0  0  0  0  0  0  0  0  0
  -13.2672  -10.2742   25.8351 C   0  0  0  0  0  0  0  0  0  0  0  0
  -12.2085   -8.6171   26.4127 Br  0  0  0  0  0  0  0  0  0  0  0  0
  -12.4112  -11.5059   26.1749 C   0  0  0  0  0  0  0  0  0  0  0  0
  -12.1555  -12.8324   25.4228 C   0  0  0  0  0  0  0  0  0  0  0  0
  -10.9213  -13.4921   25.4421 C   0  0  0  0  0  0  0  0  0  0  0  0
  -10.9899  -14.7897   25.0280 N   0  0  0  0  0  0  0  0  0  0  0  0
  -12.2486  -14.9967   24.7327 C   0  0  0  0  0  0  0  0  0  0  0  0
  -12.8186  -16.1747   24.3339 N   0  0  0  0  0  0  0  0  0  0  0  0
  -14.1010  -16.1544   24.1600 C   0  0  0  0  0  0  0  0  0  0  0  0
  -14.9835  -14.9700   24.3177 C   0  0  0  0  0  0  0  0  0  0  0  0
  -14.3740  -13.8295   24.6800 C   0  0  0  0  0  0  0  0  0  0  0  0
  -13.0048  -13.8186   24.9149 N   0  0  0  0  0  0  0  0  0  0  0  0
  -15.3293  -10.8218   26.2225 H   0  0  0  0  0  0  0  0  0  0  0  0
  -15.0259   -9.0996   26.4121 H   0  0  0  0  0  0  0  0  0  0  0  0
  -13.3847  -10.1443   24.7554 H   0  0  0  0  0  0  0  0  0  0  0  0
  -12.6297  -11.7756   27.2052 H   0  0  0  0  0  0  0  0  0  0  0  0
  -11.3990  -11.1053   26.1608 H   0  0  0  0  0  0  0  0  0  0  0  0
   -9.9835  -13.0957   25.8141 H   0  0  0  0  0  0  0  0  0  0  0  0
  -14.6134  -17.0813   23.8521 H   0  0  0  0  0  0  0  0  0  0  0  0
  -16.0434  -15.0652   24.1297 H   0  0  0  0  0  0  0  0  0  0  0  0
  -14.9103  -12.9027   24.8258 H   0  0  0  0  0  0  0  0  0  0  0  0
  1  2  1  0
  2  3  1  0
  3  4  1  0
  3  5  1  0
  5  6  1  0
  6  7  2  0
  7  8  1  0
  8  9  2  0
  9 10  1  0
 10 11  2  0
 11 12  1  0
 12 13  2  0
 13 14  1  0
 14  6  1  0
 14  9  1  0
  2 15  1  0
  2 16  1  0
  3 17  1  0
  5 18  1  0
  5 19  1  0
  7 20  1  0
 11 21  1  0
 12 22  1  0
 13 23  1  0
M  END
>  <Energy>  (792) 
63.370355679437601

>  <compound_id>  (792) 
76618

>  <target_id>  (792) 
1

>  <reference_id>  (792) 
7

>  <inspiration_ids>  (792) 
[107, 7]

>  <energy_score>  (792) 
-1.4669586529667527

>  <distance_score>  (792) 
11.609446559320762

>  <path>  (792) 
/opt/xchem-fragalysis-2/maxwin/BulkDock/SCRATCH/511022/C76618-P7/C76618-P7.minimised.mol

>  <scratch_subdir>  (792) 
/opt/xchem-fragalysis-2/maxwin/BulkDock/SCRATCH/511022/C76618-P7

>  <fragmenstein_runtime>  (792) 
5.6532533168792725

>  <fragmenstein_outcome>  (792) 
too moved

>  <fragmenstein_mode>  (792) 
expansion

>  <fragmenstein_error>  (792) 


$$$$
C76620-P107
     RDKit          3D

 32 33  0  0  0  0  0  0  0  0999 V2000
  -15.8723   -8.0240   38.5539 C   0  0  0  0  0  0  0  0  0  0  0  0
  -15.1960   -9.3847   38.5934 C   0  0  0  0  0  0  0  0  0  0  0  0
  -15.8184  -10.2908   37.6692 O   0  0  0  0  0  0  0  0  0  0  0  0
  -15.0032  -11.4777   37.4816 C   0  0  0  0  0  0  0  0  0  0  0  0
  -15.8095  -12.7790   37.1482 C   0  0  0  0  0  0  0  0  0  0  0  0
  -15.4308  -13.4253   35.8576 N   0  0  0  0  0  0  0  0  0  0  0  0
  -15.7995  -12.6411   34.6824 C   0  0  0  0  0  0  0  0  0  0  0  0
  -14.6878  -14.6135   35.7832 C   0  0  0  0  0  0  0  0  0  0  0  0
  -14.0140  -14.9328   34.4845 C   0  0  0  0  0  0  0  0  0  0  0  0
  -13.3672  -16.0871   34.3434 C   0  0  0  0  0  0  0  0  0  0  0  0
  -13.2273  -16.8985   35.4369 N   0  0  0  0  0  0  0  0  0  0  0  0
  -12.4527  -18.0087   35.6141 C   0  0  0  0  0  0  0  0  0  0  0  0
  -12.3813  -18.1450   36.9759 C   0  0  0  0  0  0  0  0  0  0  0  0
  -13.2316  -17.2869   37.6139 N   0  0  0  0  0  0  0  0  0  0  0  0
  -13.7538  -16.5316   36.6692 C   0  0  0  0  0  0  0  0  0  0  0  0
  -14.5449  -15.4214   36.8097 N   0  0  0  0  0  0  0  0  0  0  0  0
  -15.3933   -7.3331   39.2534 H   0  0  0  0  0  0  0  0  0  0  0  0
  -15.8491   -7.5860   37.5539 H   0  0  0  0  0  0  0  0  0  0  0  0
  -16.9286   -8.1210   38.8264 H   0  0  0  0  0  0  0  0  0  0  0  0
  -15.2870   -9.8054   39.6012 H   0  0  0  0  0  0  0  0  0  0  0  0
  -14.1325   -9.2896   38.3605 H   0  0  0  0  0  0  0  0  0  0  0  0
  -14.2938  -11.2406   36.6846 H   0  0  0  0  0  0  0  0  0  0  0  0
  -14.4432  -11.6704   38.4051 H   0  0  0  0  0  0  0  0  0  0  0  0
  -15.6692  -13.4893   37.9708 H   0  0  0  0  0  0  0  0  0  0  0  0
  -16.8822  -12.5511   37.1269 H   0  0  0  0  0  0  0  0  0  0  0  0
  -16.2257  -13.2799   33.9044 H   0  0  0  0  0  0  0  0  0  0  0  0
  -16.5573  -11.8862   34.9194 H   0  0  0  0  0  0  0  0  0  0  0  0
  -14.9263  -12.1194   34.2796 H   0  0  0  0  0  0  0  0  0  0  0  0
  -14.0382  -14.1836   33.7186 H   0  0  0  0  0  0  0  0  0  0  0  0
  -12.8677  -16.3303   33.4269 H   0  0  0  0  0  0  0  0  0  0  0  0
  -11.9262  -18.4947   34.8061 H   0  0  0  0  0  0  0  0  0  0  0  0
  -11.7379  -18.7928   37.5453 H   0  0  0  0  0  0  0  0  0  0  0  0
  1  2  1  0
  2  3  1  0
  3  4  1  0
  4  5  1  0
  5  6  1  0
  6  7  1  0
  6  8  1  0
  8  9  1  0
  9 10  2  0
 10 11  1  0
 11 12  1  0
 12 13  2  0
 13 14  1  0
 14 15  2  0
 15 16  1  0
 16  8  2  0
 15 11  1  0
  1 17  1  0
  1 18  1  0
  1 19  1  0
  2 20  1  0
  2 21  1  0
  4 22  1  0
  4 23  1  0
  5 24  1  0
  5 25  1  0
  7 26  1  0
  7 27  1  0
  7 28  1  0
  9 29  1  0
 10 30  1  0
 12 31  1  0
 13 32  1  0
M  END
>  <Energy>  (793) 
29.49789284292924

>  <compound_id>  (793) 
76620

>  <target_id>  (793) 
1

>  <reference_id>  (793) 
107

>  <inspiration_ids>  (793) 
[107, 7]

>  <energy_score>  (793) 
-37.519611787790524

>  <distance_score>  (793) 
8.96097771131723

>  <path>  (793) 
/opt/xchem-fragalysis-2/maxwin/BulkDock/SCRATCH/511022/C76620-P107/C76620-P107.minimised.mol

>  <scratch_subdir>  (793) 
/opt/xchem-fragalysis-2/maxwin/BulkDock/SCRATCH/511022/C76620-P107

>  <fragmenstein_runtime>  (793) 
9.017843246459961

>  <fragmenstein_outcome>  (793) 
too moved

>  <fragmenstein_mode>  (793) 
expansion

>  <fragmenstein_error>  (793) 


$$$$
C76620-P7
     RDKit          3D

 32 33  0  0  0  0  0  0  0  0999 V2000
  -14.4073  -13.5741   34.2097 C   0  0  0  0  0  0  0  0  0  0  0  0
  -13.6965  -14.9321   33.9603 C   0  0  0  0  0  0  0  0  0  0  0  0
  -12.6670  -14.9601   32.9088 O   0  0  0  0  0  0  0  0  0  0  0  0
  -13.1535  -15.8785   31.6820 C   0  0  0  0  0  0  0  0  0  0  0  0
  -12.5107  -16.7550   30.2130 C   0  0  0  0  0  0  0  0  0  0  0  0
  -12.6320  -18.5135   29.1894 N   0  0  0  0  0  0  0  0  0  0  0  0
  -11.6000  -17.9480   28.6184 C   0  0  0  0  0  0  0  0  0  0  0  0
  -12.2978  -20.3272   29.2154 C   0  0  0  0  0  0  0  0  0  0  0  0
  -12.0219  -21.3823   27.9593 C   0  0  0  0  0  0  0  0  0  0  0  0
  -11.6684  -22.6577   28.0123 C   0  0  0  0  0  0  0  0  0  0  0  0
  -11.4402  -23.1613   29.2316 N   0  0  0  0  0  0  0  0  0  0  0  0
  -10.8757  -24.3753   29.5135 C   0  0  0  0  0  0  0  0  0  0  0  0
  -10.3971  -24.1865   30.7780 C   0  0  0  0  0  0  0  0  0  0  0  0
  -11.0574  -23.0941   31.3636 N   0  0  0  0  0  0  0  0  0  0  0  0
  -11.5412  -22.3612   30.3621 C   0  0  0  0  0  0  0  0  0  0  0  0
  -11.9579  -21.0275   30.3350 N   0  0  0  0  0  0  0  0  0  0  0  0
  -15.1964  -13.7148   34.9561 H   0  0  0  0  0  0  0  0  0  0  0  0
  -13.7385  -12.7923   34.5678 H   0  0  0  0  0  0  0  0  0  0  0  0
  -14.8902  -13.1509   33.3287 H   0  0  0  0  0  0  0  0  0  0  0  0
  -14.4497  -15.7029   33.7917 H   0  0  0  0  0  0  0  0  0  0  0  0
  -13.1857  -15.2710   34.8603 H   0  0  0  0  0  0  0  0  0  0  0  0
  -13.2045  -16.6549   32.4039 H   0  0  0  0  0  0  0  0  0  0  0  0
  -12.7385  -15.0381   31.1649 H   0  0  0  0  0  0  0  0  0  0  0  0
  -12.8033  -16.0776   29.4026 H   0  0  0  0  0  0  0  0  0  0  0  0
  -11.5755  -16.3967   30.5892 H   0  0  0  0  0  0  0  0  0  0  0  0
  -11.1734  -17.7359   29.5169 H   0  0  0  0  0  0  0  0  0  0  0  0
  -10.8234  -18.4819   28.8888 H   0  0  0  0  0  0  0  0  0  0  0  0
  -11.2508  -17.3756   27.7858 H   0  0  0  0  0  0  0  0  0  0  0  0
  -11.9623  -21.0691   26.9381 H   0  0  0  0  0  0  0  0  0  0  0  0
  -11.4760  -23.2658   27.1398 H   0  0  0  0  0  0  0  0  0  0  0  0
  -10.6982  -25.1352   28.7679 H   0  0  0  0  0  0  0  0  0  0  0  0
   -9.7366  -24.8213   31.3621 H   0  0  0  0  0  0  0  0  0  0  0  0
  1  2  1  0
  2  3  1  0
  3  4  1  0
  4  5  1  0
  5  6  1  0
  6  7  1  0
  6  8  1  0
  8  9  1  0
  9 10  2  0
 10 11  1  0
 11 12  1  0
 12 13  2  0
 13 14  1  0
 14 15  2  0
 15 16  1  0
 16  8  2  0
 15 11  1  0
  1 17  1  0
  1 18  1  0
  1 19  1  0
  2 20  1  0
  2 21  1  0
  4 22  1  0
  4 23  1  0
  5 24  1  0
  5 25  1  0
  7 26  1  0
  7 27  1  0
  7 28  1  0
  9 29  1  0
 10 30  1  0
 12 31  1  0
 13 32  1  0
M  END
>  <Energy>  (794) 
517.05752557011431

>  <compound_id>  (794) 
76620

>  <target_id>  (794) 
1

>  <reference_id>  (794) 
7

>  <inspiration_ids>  (794) 
[107, 7]

>  <energy_score>  (794) 
450.0400209393945

>  <distance_score>  (794) 
7.269924365199087

>  <path>  (794) 
/opt/xchem-fragalysis-2/maxwin/BulkDock/SCRATCH/511022/C76620-P7/C76620-P7.minimised.mol

>  <scratch_subdir>  (794) 
/opt/xchem-fragalysis-2/maxwin/BulkDock/SCRATCH/511022/C76620-P7

>  <fragmenstein_runtime>  (794) 
7.187450647354126

>  <fragmenstein_outcome>  (794) 
too moved

>  <fragmenstein_mode>  (794) 
expansion

>  <fragmenstein_error>  (794) 


$$$$
C76622-P107
     RDKit          3D

 22 23  0  0  0  0  0  0  0  0999 V2000
  -14.9596  -12.1175   36.5501 C   0  0  0  0  0  0  0  0  0  0  0  0
  -14.4072  -13.1612   35.5179 C   0  0  0  0  0  0  0  0  0  0  0  0
  -13.9459  -12.6248   34.5094 O   0  0  0  0  0  0  0  0  0  0  0  0
  -14.5827  -14.9362   35.8511 C   0  0  0  0  0  0  0  0  0  0  0  0
  -14.1675  -16.5303   35.0984 C   0  0  0  0  0  0  0  0  0  0  0  0
  -15.0488  -17.6291   34.9083 C   0  0  0  0  0  0  0  0  0  0  0  0
  -14.3399  -18.7895   34.5334 N   0  0  0  0  0  0  0  0  0  0  0  0
  -14.7865  -20.0473   34.0492 C   0  0  0  0  0  0  0  0  0  0  0  0
  -13.9181  -20.9906   33.6408 C   0  0  0  0  0  0  0  0  0  0  0  0
  -12.4996  -20.5845   33.8073 C   0  0  0  0  0  0  0  0  0  0  0  0
  -12.0734  -19.4379   34.2657 N   0  0  0  0  0  0  0  0  0  0  0  0
  -12.9975  -18.4581   34.6072 C   0  0  0  0  0  0  0  0  0  0  0  0
  -12.8821  -17.1540   34.9775 N   0  0  0  0  0  0  0  0  0  0  0  0
  -14.3234  -11.2313   36.5842 H   0  0  0  0  0  0  0  0  0  0  0  0
  -15.9719  -11.8405   36.2449 H   0  0  0  0  0  0  0  0  0  0  0  0
  -15.0030  -12.5799   37.5394 H   0  0  0  0  0  0  0  0  0  0  0  0
  -15.6772  -15.0379   35.9164 H   0  0  0  0  0  0  0  0  0  0  0  0
  -14.1848  -15.0722   36.8628 H   0  0  0  0  0  0  0  0  0  0  0  0
  -16.1242  -17.6793   35.0011 H   0  0  0  0  0  0  0  0  0  0  0  0
  -15.8589  -20.1945   34.0105 H   0  0  0  0  0  0  0  0  0  0  0  0
  -14.1776  -21.9696   33.2616 H   0  0  0  0  0  0  0  0  0  0  0  0
  -11.7785  -21.3501   33.4895 H   0  0  0  0  0  0  0  0  0  0  0  0
  1  2  1  0
  2  3  2  0
  2  4  1  0
  4  5  1  0
  5  6  2  0
  6  7  1  0
  7  8  1  0
  8  9  2  0
  9 10  1  0
 10 11  2  0
 11 12  1  0
 12 13  2  0
 13  5  1  0
 12  7  1  0
  1 14  1  0
  1 15  1  0
  1 16  1  0
  4 17  1  0
  4 18  1  0
  6 19  1  0
  8 20  1  0
  9 21  1  0
 10 22  1  0
M  END
>  <Energy>  (795) 
124.15444592984234

>  <compound_id>  (795) 
76622

>  <target_id>  (795) 
1

>  <reference_id>  (795) 
107

>  <inspiration_ids>  (795) 
[107, 7]

>  <energy_score>  (795) 
67.63243430373231

>  <distance_score>  (795) 
7.59688724498281

>  <path>  (795) 
/opt/xchem-fragalysis-2/maxwin/BulkDock/SCRATCH/511022/C76622-P107/C76622-P107.minimised.mol

>  <scratch_subdir>  (795) 
/opt/xchem-fragalysis-2/maxwin/BulkDock/SCRATCH/511022/C76622-P107

>  <fragmenstein_runtime>  (795) 
2.6459102630615234

>  <fragmenstein_outcome>  (795) 
too moved

>  <fragmenstein_mode>  (795) 
expansion

>  <fragmenstein_error>  (795) 


$$$$
C76622-P7
     RDKit          3D

 22 23  0  0  0  0  0  0  0  0999 V2000
  -16.0291  -12.8486   35.4772 C   0  0  0  0  0  0  0  0  0  0  0  0
  -15.3313  -14.1366   35.0750 C   0  0  0  0  0  0  0  0  0  0  0  0
  -14.2732  -14.0706   34.4418 O   0  0  0  0  0  0  0  0  0  0  0  0
  -15.9590  -15.4623   35.5600 C   0  0  0  0  0  0  0  0  0  0  0  0
  -15.3293  -16.8003   35.1800 C   0  0  0  0  0  0  0  0  0  0  0  0
  -14.0697  -17.3454   35.3713 C   0  0  0  0  0  0  0  0  0  0  0  0
  -14.1280  -18.6523   34.9200 N   0  0  0  0  0  0  0  0  0  0  0  0
  -13.1266  -19.5996   34.7474 C   0  0  0  0  0  0  0  0  0  0  0  0
  -13.4129  -20.7755   34.1606 C   0  0  0  0  0  0  0  0  0  0  0  0
  -14.8486  -20.9655   33.8032 C   0  0  0  0  0  0  0  0  0  0  0  0
  -15.7959  -20.0887   33.9639 N   0  0  0  0  0  0  0  0  0  0  0  0
  -15.4396  -18.8984   34.5328 C   0  0  0  0  0  0  0  0  0  0  0  0
  -16.1480  -17.7880   34.6436 N   0  0  0  0  0  0  0  0  0  0  0  0
  -17.0461  -12.8501   35.0777 H   0  0  0  0  0  0  0  0  0  0  0  0
  -15.4888  -11.9915   35.0658 H   0  0  0  0  0  0  0  0  0  0  0  0
  -16.0521  -12.7690   36.5664 H   0  0  0  0  0  0  0  0  0  0  0  0
  -16.9943  -15.4634   35.1968 H   0  0  0  0  0  0  0  0  0  0  0  0
  -15.9947  -15.4187   36.6553 H   0  0  0  0  0  0  0  0  0  0  0  0
  -13.1455  -16.9491   35.7628 H   0  0  0  0  0  0  0  0  0  0  0  0
  -12.1377  -19.3122   35.0607 H   0  0  0  0  0  0  0  0  0  0  0  0
  -12.7077  -21.5711   33.9675 H   0  0  0  0  0  0  0  0  0  0  0  0
  -15.0998  -21.9452   33.3659 H   0  0  0  0  0  0  0  0  0  0  0  0
  1  2  1  0
  2  3  2  0
  2  4  1  0
  4  5  1  0
  5  6  2  0
  6  7  1  0
  7  8  1  0
  8  9  2  0
  9 10  1  0
 10 11  2  0
 11 12  1  0
 12 13  2  0
 13  5  1  0
 12  7  1  0
  1 14  1  0
  1 15  1  0
  1 16  1  0
  4 17  1  0
  4 18  1  0
  6 19  1  0
  8 20  1  0
  9 21  1  0
 10 22  1  0
M  END
>  <Energy>  (796) 
42.483245744912367

>  <compound_id>  (796) 
76622

>  <target_id>  (796) 
1

>  <reference_id>  (796) 
7

>  <inspiration_ids>  (796) 
[107, 7]

>  <energy_score>  (796) 
-20.06554509918314

>  <distance_score>  (796) 
8.137823183672069

>  <path>  (796) 
/opt/xchem-fragalysis-2/maxwin/BulkDock/SCRATCH/511022/C76622-P7/C76622-P7.minimised.mol

>  <scratch_subdir>  (796) 
/opt/xchem-fragalysis-2/maxwin/BulkDock/SCRATCH/511022/C76622-P7

>  <fragmenstein_runtime>  (796) 
3.584172487258911

>  <fragmenstein_outcome>  (796) 
too moved

>  <fragmenstein_mode>  (796) 
expansion

>  <fragmenstein_error>  (796) 


$$$$
C76625-P107
     RDKit          3D

 28 29  0  0  0  0  0  0  0  0999 V2000
  -15.4022   -5.4249   38.9727 C   0  0  0  0  0  0  0  0  0  0  0  0
  -15.9504   -6.6873   37.7810 S   0  0  0  0  0  0  0  0  0  0  0  0
  -15.6115   -8.2159   38.7619 C   0  0  0  0  0  0  0  0  0  0  0  0
  -16.2993   -9.4975   38.2317 C   0  0  0  0  0  0  0  0  0  0  0  0
  -15.4580  -10.3287   37.3967 O   0  0  0  0  0  0  0  0  0  0  0  0
  -15.8599  -11.7041   37.5377 N   0  0  0  0  0  0  0  0  0  0  0  0
  -15.2555  -12.4869   36.6750 C   0  0  0  0  0  0  0  0  0  0  0  0
  -15.3768  -13.9585   36.6997 C   0  0  0  0  0  0  0  0  0  0  0  0
  -16.0495  -14.7565   37.6090 C   0  0  0  0  0  0  0  0  0  0  0  0
  -15.8019  -16.0966   37.4287 N   0  0  0  0  0  0  0  0  0  0  0  0
  -14.9560  -16.1772   36.4259 C   0  0  0  0  0  0  0  0  0  0  0  0
  -14.3196  -17.2868   35.9314 N   0  0  0  0  0  0  0  0  0  0  0  0
  -13.5371  -17.0944   34.9152 C   0  0  0  0  0  0  0  0  0  0  0  0
  -13.3494  -15.8054   34.2055 C   0  0  0  0  0  0  0  0  0  0  0  0
  -13.9929  -14.7533   34.7320 C   0  0  0  0  0  0  0  0  0  0  0  0
  -14.7488  -14.9033   35.8815 N   0  0  0  0  0  0  0  0  0  0  0  0
  -16.0921   -5.3921   39.8197 H   0  0  0  0  0  0  0  0  0  0  0  0
  -15.4013   -4.4475   38.4835 H   0  0  0  0  0  0  0  0  0  0  0  0
  -14.3938   -5.6405   39.3338 H   0  0  0  0  0  0  0  0  0  0  0  0
  -16.0149   -8.0153   39.7604 H   0  0  0  0  0  0  0  0  0  0  0  0
  -14.5342   -8.3695   38.8533 H   0  0  0  0  0  0  0  0  0  0  0  0
  -16.5857  -10.0921   39.1092 H   0  0  0  0  0  0  0  0  0  0  0  0
  -17.2158   -9.2692   37.6770 H   0  0  0  0  0  0  0  0  0  0  0  0
  -14.5917  -12.0422   35.9129 H   0  0  0  0  0  0  0  0  0  0  0  0
  -16.6728  -14.4157   38.4271 H   0  0  0  0  0  0  0  0  0  0  0  0
  -12.9713  -17.9485   34.5092 H   0  0  0  0  0  0  0  0  0  0  0  0
  -12.7518  -15.7528   33.3072 H   0  0  0  0  0  0  0  0  0  0  0  0
  -13.9699  -13.7664   34.2894 H   0  0  0  0  0  0  0  0  0  0  0  0
  1  2  1  0
  2  3  1  0
  3  4  1  0
  4  5  1  0
  5  6  1  0
  6  7  2  3
  7  8  1  0
  8  9  2  0
  9 10  1  0
 10 11  2  0
 11 12  1  0
 12 13  2  0
 13 14  1  0
 14 15  2  0
 15 16  1  0
 16  8  1  0
 16 11  1  0
  1 17  1  0
  1 18  1  0
  1 19  1  0
  3 20  1  0
  3 21  1  0
  4 22  1  0
  4 23  1  0
  7 24  1  0
  9 25  1  0
 13 26  1  0
 14 27  1  0
 15 28  1  0
M  END
>  <Energy>  (797) 
51.313658137043319

>  <compound_id>  (797) 
76625

>  <target_id>  (797) 
1

>  <reference_id>  (797) 
107

>  <inspiration_ids>  (797) 
[107, 7]

>  <energy_score>  (797) 
-25.477123324293387

>  <distance_score>  (797) 
8.894706873665513

>  <path>  (797) 
/opt/xchem-fragalysis-2/maxwin/BulkDock/SCRATCH/511022/C76625-P107/C76625-P107.minimised.mol

>  <scratch_subdir>  (797) 
/opt/xchem-fragalysis-2/maxwin/BulkDock/SCRATCH/511022/C76625-P107

>  <fragmenstein_runtime>  (797) 
7.157824277877808

>  <fragmenstein_outcome>  (797) 
too moved

>  <fragmenstein_mode>  (797) 
expansion

>  <fragmenstein_error>  (797) 


$$$$
C76625-P7
     RDKit          3D

 28 29  0  0  0  0  0  0  0  0999 V2000
  -14.9758   -7.2211   38.7866 C   0  0  0  0  0  0  0  0  0  0  0  0
  -15.6051   -7.6544   37.1448 S   0  0  0  0  0  0  0  0  0  0  0  0
  -14.9126   -9.3508   36.9659 C   0  0  0  0  0  0  0  0  0  0  0  0
  -15.6217  -10.1492   35.8577 C   0  0  0  0  0  0  0  0  0  0  0  0
  -14.8764  -11.3370   35.4837 O   0  0  0  0  0  0  0  0  0  0  0  0
  -15.6203  -12.5322   35.7513 N   0  0  0  0  0  0  0  0  0  0  0  0
  -15.1361  -13.5500   35.0768 C   0  0  0  0  0  0  0  0  0  0  0  0
  -15.5532  -14.9420   35.3294 C   0  0  0  0  0  0  0  0  0  0  0  0
  -16.7103  -15.3589   35.9659 C   0  0  0  0  0  0  0  0  0  0  0  0
  -16.7895  -16.7218   36.0797 N   0  0  0  0  0  0  0  0  0  0  0  0
  -15.6754  -17.2026   35.5823 C   0  0  0  0  0  0  0  0  0  0  0  0
  -15.3000  -18.5113   35.4688 N   0  0  0  0  0  0  0  0  0  0  0  0
  -14.0754  -18.7324   35.1153 C   0  0  0  0  0  0  0  0  0  0  0  0
  -13.0929  -17.6926   34.7589 C   0  0  0  0  0  0  0  0  0  0  0  0
  -13.5756  -16.4441   34.6539 C   0  0  0  0  0  0  0  0  0  0  0  0
  -14.8633  -16.1569   35.1144 N   0  0  0  0  0  0  0  0  0  0  0  0
  -13.9728   -7.6197   38.9481 H   0  0  0  0  0  0  0  0  0  0  0  0
  -15.6423   -7.6318   39.5498 H   0  0  0  0  0  0  0  0  0  0  0  0
  -14.9535   -6.1337   38.8935 H   0  0  0  0  0  0  0  0  0  0  0  0
  -13.8456   -9.2803   36.7487 H   0  0  0  0  0  0  0  0  0  0  0  0
  -15.0153   -9.8911   37.9131 H   0  0  0  0  0  0  0  0  0  0  0  0
  -16.6394  -10.4178   36.1661 H   0  0  0  0  0  0  0  0  0  0  0  0
  -15.6967   -9.5488   34.9444 H   0  0  0  0  0  0  0  0  0  0  0  0
  -14.3130  -13.3917   34.3598 H   0  0  0  0  0  0  0  0  0  0  0  0
  -17.5070  -14.7259   36.3406 H   0  0  0  0  0  0  0  0  0  0  0  0
  -13.7131  -19.7683   35.0156 H   0  0  0  0  0  0  0  0  0  0  0  0
  -12.0838  -18.0001   34.5310 H   0  0  0  0  0  0  0  0  0  0  0  0
  -12.9670  -15.6344   34.2778 H   0  0  0  0  0  0  0  0  0  0  0  0
  1  2  1  0
  2  3  1  0
  3  4  1  0
  4  5  1  0
  5  6  1  0
  6  7  2  3
  7  8  1  0
  8  9  2  0
  9 10  1  0
 10 11  2  0
 11 12  1  0
 12 13  2  0
 13 14  1  0
 14 15  2  0
 15 16  1  0
 16  8  1  0
 16 11  1  0
  1 17  1  0
  1 18  1  0
  1 19  1  0
  3 20  1  0
  3 21  1  0
  4 22  1  0
  4 23  1  0
  7 24  1  0
  9 25  1  0
 13 26  1  0
 14 27  1  0
 15 28  1  0
M  END
>  <Energy>  (798) 
53.624728675738091

>  <compound_id>  (798) 
76625

>  <target_id>  (798) 
1

>  <reference_id>  (798) 
7

>  <inspiration_ids>  (798) 
[107, 7]

>  <energy_score>  (798) 
-23.16605278559811

>  <distance_score>  (798) 
8.505598026062213

>  <path>  (798) 
/opt/xchem-fragalysis-2/maxwin/BulkDock/SCRATCH/511022/C76625-P7/C76625-P7.minimised.mol

>  <scratch_subdir>  (798) 
/opt/xchem-fragalysis-2/maxwin/BulkDock/SCRATCH/511022/C76625-P7

>  <fragmenstein_runtime>  (798) 
6.102792024612427

>  <fragmenstein_outcome>  (798) 
too moved

>  <fragmenstein_mode>  (798) 
expansion

>  <fragmenstein_error>  (798) 


$$$$
C76630-P107
     RDKit          3D

 35 36  0  0  0  0  0  0  0  0999 V2000
  -14.3139  -13.6523   34.4918 C   0  0  0  0  0  0  0  0  0  0  0  0
  -13.6813  -15.0444   34.3825 C   0  0  0  0  0  0  0  0  0  0  0  0
  -13.5964  -15.7204   35.7430 C   0  0  0  0  0  0  0  0  0  0  0  0
  -12.4263  -15.1857   33.5765 O   0  0  0  0  0  0  0  0  0  0  0  0
  -12.7458  -15.5094   32.1417 C   0  0  0  0  0  0  0  0  0  0  0  0
  -12.2028  -16.5259   30.9321 C   0  0  0  0  0  0  0  0  0  0  0  0
  -12.1933  -17.6331   29.2950 N   0  0  0  0  0  0  0  0  0  0  0  0
  -12.6682  -16.1859   29.0114 C   0  0  0  0  0  0  0  0  0  0  0  0
  -12.4174  -19.5208   28.9608 C   0  0  0  0  0  0  0  0  0  0  0  0
  -11.9518  -21.1027   27.9798 C   0  0  0  0  0  0  0  0  0  0  0  0
  -11.7656  -22.4078   28.4251 C   0  0  0  0  0  0  0  0  0  0  0  0
  -11.7430  -22.6507   29.8038 N   0  0  0  0  0  0  0  0  0  0  0  0
  -11.6525  -23.7338   30.6259 C   0  0  0  0  0  0  0  0  0  0  0  0
  -11.6484  -23.1898   31.9003 C   0  0  0  0  0  0  0  0  0  0  0  0
  -11.7195  -21.8103   31.8662 N   0  0  0  0  0  0  0  0  0  0  0  0
  -11.7994  -21.5381   30.5933 C   0  0  0  0  0  0  0  0  0  0  0  0
  -12.1044  -20.5560   29.7774 N   0  0  0  0  0  0  0  0  0  0  0  0
  -13.7162  -12.9566   35.0776 H   0  0  0  0  0  0  0  0  0  0  0  0
  -15.2908  -13.7227   34.9844 H   0  0  0  0  0  0  0  0  0  0  0  0
  -14.4764  -13.1766   33.5268 H   0  0  0  0  0  0  0  0  0  0  0  0
  -14.4301  -15.6698   33.9200 H   0  0  0  0  0  0  0  0  0  0  0  0
  -14.4408  -16.4164   35.8506 H   0  0  0  0  0  0  0  0  0  0  0  0
  -12.7023  -16.3345   35.8606 H   0  0  0  0  0  0  0  0  0  0  0  0
  -13.7313  -15.0319   36.5730 H   0  0  0  0  0  0  0  0  0  0  0  0
  -12.7589  -14.5543   31.7093 H   0  0  0  0  0  0  0  0  0  0  0  0
  -13.6267  -16.0105   32.4033 H   0  0  0  0  0  0  0  0  0  0  0  0
  -11.2482  -16.0521   30.9943 H   0  0  0  0  0  0  0  0  0  0  0  0
  -12.6958  -17.1576   31.5976 H   0  0  0  0  0  0  0  0  0  0  0  0
  -12.3712  -15.3358   29.6692 H   0  0  0  0  0  0  0  0  0  0  0  0
  -13.7245  -16.1665   28.8304 H   0  0  0  0  0  0  0  0  0  0  0  0
  -12.0385  -15.6292   28.2293 H   0  0  0  0  0  0  0  0  0  0  0  0
  -11.7520  -21.0403   26.9182 H   0  0  0  0  0  0  0  0  0  0  0  0
  -11.5513  -23.2370   27.7670 H   0  0  0  0  0  0  0  0  0  0  0  0
  -11.6146  -24.7507   30.2682 H   0  0  0  0  0  0  0  0  0  0  0  0
  -11.6075  -23.7206   32.8441 H   0  0  0  0  0  0  0  0  0  0  0  0
  1  2  1  0
  2  3  1  0
  2  4  1  0
  4  5  1  0
  5  6  1  0
  6  7  1  0
  7  8  1  0
  7  9  1  0
  9 10  1  0
 10 11  2  0
 11 12  1  0
 12 13  1  0
 13 14  2  0
 14 15  1  0
 15 16  2  0
 16 17  1  0
 17  9  2  0
 16 12  1  0
  1 18  1  0
  1 19  1  0
  1 20  1  0
  2 21  1  0
  3 22  1  0
  3 23  1  0
  3 24  1  0
  5 25  1  0
  5 26  1  0
  6 27  1  0
  6 28  1  0
  8 29  1  0
  8 30  1  0
  8 31  1  0
 10 32  1  0
 11 33  1  0
 13 34  1  0
 14 35  1  0
M  END
>  <Energy>  (799) 
695.48357494424693

>  <compound_id>  (799) 
76630

>  <target_id>  (799) 
1

>  <reference_id>  (799) 
107

>  <inspiration_ids>  (799) 
[107, 7]

>  <energy_score>  (799) 
642.6815919009574

>  <distance_score>  (799) 
8.522389117790985

>  <path>  (799) 
/opt/xchem-fragalysis-2/maxwin/BulkDock/SCRATCH/511022/C76630-P107/C76630-P107.minimised.mol

>  <scratch_subdir>  (799) 
/opt/xchem-fragalysis-2/maxwin/BulkDock/SCRATCH/511022/C76630-P107

>  <fragmenstein_runtime>  (799) 
8.081404685974121

>  <fragmenstein_outcome>  (799) 
too moved

>  <fragmenstein_mode>  (799) 
expansion

>  <fragmenstein_error>  (799) 


$$$$
C76630-P7
     RDKit          3D

 35 36  0  0  0  0  0  0  0  0999 V2000
  -15.0999  -13.6615   34.3464 C   0  0  0  0  0  0  0  0  0  0  0  0
  -14.3505  -14.9829   34.5351 C   0  0  0  0  0  0  0  0  0  0  0  0
  -15.0466  -15.8000   35.6227 C   0  0  0  0  0  0  0  0  0  0  0  0
  -14.3710  -15.7461   33.3362 O   0  0  0  0  0  0  0  0  0  0  0  0
  -13.1316  -16.0943   32.6492 C   0  0  0  0  0  0  0  0  0  0  0  0
  -12.5042  -16.3998   30.8214 C   0  0  0  0  0  0  0  0  0  0  0  0
  -12.2778  -17.7473   29.3369 N   0  0  0  0  0  0  0  0  0  0  0  0
  -13.0421  -16.4755   28.7264 C   0  0  0  0  0  0  0  0  0  0  0  0
  -12.4156  -19.6311   29.0463 C   0  0  0  0  0  0  0  0  0  0  0  0
  -12.0741  -21.1276   27.9710 C   0  0  0  0  0  0  0  0  0  0  0  0
  -11.6708  -22.3745   28.2926 C   0  0  0  0  0  0  0  0  0  0  0  0
  -11.5257  -22.6608   29.6048 N   0  0  0  0  0  0  0  0  0  0  0  0
  -11.0142  -23.7128   30.2948 C   0  0  0  0  0  0  0  0  0  0  0  0
  -10.9029  -23.2285   31.6030 C   0  0  0  0  0  0  0  0  0  0  0  0
  -11.5172  -22.0369   31.7284 N   0  0  0  0  0  0  0  0  0  0  0  0
  -11.7942  -21.6936   30.4964 C   0  0  0  0  0  0  0  0  0  0  0  0
  -12.1088  -20.4874   30.0777 N   0  0  0  0  0  0  0  0  0  0  0  0
  -15.1948  -13.0877   35.2711 H   0  0  0  0  0  0  0  0  0  0  0  0
  -16.1139  -13.8311   33.9821 H   0  0  0  0  0  0  0  0  0  0  0  0
  -14.6040  -13.0229   33.6153 H   0  0  0  0  0  0  0  0  0  0  0  0
  -13.3188  -14.8250   34.8092 H   0  0  0  0  0  0  0  0  0  0  0  0
  -15.8914  -16.3824   35.2504 H   0  0  0  0  0  0  0  0  0  0  0  0
  -15.4254  -15.1957   36.4511 H   0  0  0  0  0  0  0  0  0  0  0  0
  -14.3498  -16.5472   36.0215 H   0  0  0  0  0  0  0  0  0  0  0  0
  -13.0729  -17.0198   33.2382 H   0  0  0  0  0  0  0  0  0  0  0  0
  -12.4186  -15.3220   32.9704 H   0  0  0  0  0  0  0  0  0  0  0  0
  -11.5254  -15.9553   30.8990 H   0  0  0  0  0  0  0  0  0  0  0  0
  -12.8503  -15.4194   30.4773 H   0  0  0  0  0  0  0  0  0  0  0  0
  -13.8754  -16.8200   28.0279 H   0  0  0  0  0  0  0  0  0  0  0  0
  -13.8113  -15.9653   29.3325 H   0  0  0  0  0  0  0  0  0  0  0  0
  -12.3265  -15.6663   28.4441 H   0  0  0  0  0  0  0  0  0  0  0  0
  -11.9523  -21.0249   26.9006 H   0  0  0  0  0  0  0  0  0  0  0  0
  -11.4110  -23.1264   27.5628 H   0  0  0  0  0  0  0  0  0  0  0  0
  -10.6770  -24.6215   29.8163 H   0  0  0  0  0  0  0  0  0  0  0  0
  -10.4256  -23.6930   32.4615 H   0  0  0  0  0  0  0  0  0  0  0  0
  1  2  1  0
  2  3  1  0
  2  4  1  0
  4  5  1  0
  5  6  1  0
  6  7  1  0
  7  8  1  0
  7  9  1  0
  9 10  1  0
 10 11  2  0
 11 12  1  0
 12 13  1  0
 13 14  2  0
 14 15  1  0
 15 16  2  0
 16 17  1  0
 17  9  2  0
 16 12  1  0
  1 18  1  0
  1 19  1  0
  1 20  1  0
  2 21  1  0
  3 22  1  0
  3 23  1  0
  3 24  1  0
  5 25  1  0
  5 26  1  0
  6 27  1  0
  6 28  1  0
  8 29  1  0
  8 30  1  0
  8 31  1  0
 10 32  1  0
 11 33  1  0
 13 34  1  0
 14 35  1  0
M  END
>  <Energy>  (800) 
549.98449367530634

>  <compound_id>  (800) 
76630

>  <target_id>  (800) 
1

>  <reference_id>  (800) 
7

>  <inspiration_ids>  (800) 
[107, 7]

>  <energy_score>  (800) 
497.1825106320183

>  <distance_score>  (800) 
8.628632843499476

>  <path>  (800) 
/opt/xchem-fragalysis-2/maxwin/BulkDock/SCRATCH/511022/C76630-P7/C76630-P7.minimised.mol

>  <scratch_subdir>  (800) 
/opt/xchem-fragalysis-2/maxwin/BulkDock/SCRATCH/511022/C76630-P7

>  <fragmenstein_runtime>  (800) 
9.824268341064453

>  <fragmenstein_outcome>  (800) 
too moved

>  <fragmenstein_mode>  (800) 
expansion

>  <fragmenstein_error>  (800) 


$$$$
C76631-P107
     RDKit          3D

 27 28  0  0  0  0  0  0  0  0999 V2000
  -15.2573  -12.2824   35.4489 C   0  0  0  0  0  0  0  0  0  0  0  0
  -15.5329  -13.5648   36.2291 C   0  0  0  0  0  0  0  0  0  0  0  0
  -14.8886  -14.6867   35.5732 O   0  0  0  0  0  0  0  0  0  0  0  0
  -14.7938  -15.9361   36.1247 C   0  0  0  0  0  0  0  0  0  0  0  0
  -15.4183  -16.2898   37.6422 S   0  0  0  0  0  0  0  0  0  0  0  0
  -13.8741  -17.1023   35.1655 S   0  0  0  0  0  0  0  0  0  0  0  0
  -14.9404  -18.5712   35.2189 C   0  0  0  0  0  0  0  0  0  0  0  0
  -14.4263  -19.6868   34.3506 C   0  0  0  0  0  0  0  0  0  0  0  0
  -13.2061  -20.3389   34.3712 C   0  0  0  0  0  0  0  0  0  0  0  0
  -13.3040  -21.3634   33.4635 N   0  0  0  0  0  0  0  0  0  0  0  0
  -12.4127  -22.3724   33.1341 C   0  0  0  0  0  0  0  0  0  0  0  0
  -12.6312  -23.1287   32.0548 C   0  0  0  0  0  0  0  0  0  0  0  0
  -13.8314  -22.7308   31.2808 C   0  0  0  0  0  0  0  0  0  0  0  0
  -14.7139  -21.8357   31.6096 N   0  0  0  0  0  0  0  0  0  0  0  0
  -14.5008  -21.1827   32.7828 C   0  0  0  0  0  0  0  0  0  0  0  0
  -15.2065  -20.2127   33.3387 N   0  0  0  0  0  0  0  0  0  0  0  0
  -14.1843  -12.1200   35.3365 H   0  0  0  0  0  0  0  0  0  0  0  0
  -15.7046  -11.4205   35.9508 H   0  0  0  0  0  0  0  0  0  0  0  0
  -15.6715  -12.3594   34.4381 H   0  0  0  0  0  0  0  0  0  0  0  0
  -16.6121  -13.7472   36.2600 H   0  0  0  0  0  0  0  0  0  0  0  0
  -15.1452  -13.4475   37.2456 H   0  0  0  0  0  0  0  0  0  0  0  0
  -15.9471  -18.2927   34.8908 H   0  0  0  0  0  0  0  0  0  0  0  0
  -15.0120  -18.9361   36.2470 H   0  0  0  0  0  0  0  0  0  0  0  0
  -12.3197  -20.1864   34.9697 H   0  0  0  0  0  0  0  0  0  0  0  0
  -11.5795  -22.5306   33.7910 H   0  0  0  0  0  0  0  0  0  0  0  0
  -12.0199  -23.9578   31.7344 H   0  0  0  0  0  0  0  0  0  0  0  0
  -13.9408  -23.2554   30.3189 H   0  0  0  0  0  0  0  0  0  0  0  0
  1  2  1  0
  2  3  1  0
  3  4  1  0
  4  5  2  0
  4  6  1  0
  6  7  1  0
  7  8  1  0
  8  9  2  0
  9 10  1  0
 10 11  1  0
 11 12  2  0
 12 13  1  0
 13 14  2  0
 14 15  1  0
 15 16  2  0
 16  8  1  0
 15 10  1  0
  1 17  1  0
  1 18  1  0
  1 19  1  0
  2 20  1  0
  2 21  1  0
  7 22  1  0
  7 23  1  0
  9 24  1  0
 11 25  1  0
 12 26  1  0
 13 27  1  0
M  END
>  <Energy>  (801) 
24.091939184733935

>  <compound_id>  (801) 
76631

>  <target_id>  (801) 
1

>  <reference_id>  (801) 
107

>  <inspiration_ids>  (801) 
[107, 7]

>  <energy_score>  (801) 
-26.516383897150703

>  <distance_score>  (801) 
6.688749776989938

>  <path>  (801) 
/opt/xchem-fragalysis-2/maxwin/BulkDock/SCRATCH/511022/C76631-P107/C76631-P107.minimised.mol

>  <scratch_subdir>  (801) 
/opt/xchem-fragalysis-2/maxwin/BulkDock/SCRATCH/511022/C76631-P107

>  <fragmenstein_runtime>  (801) 
4.690181255340576

>  <fragmenstein_outcome>  (801) 
too moved

>  <fragmenstein_mode>  (801) 
expansion

>  <fragmenstein_error>  (801) 


$$$$
C76631-P7
     RDKit          3D

 27 28  0  0  0  0  0  0  0  0999 V2000
  -14.1000  -10.0985   36.9199 C   0  0  0  0  0  0  0  0  0  0  0  0
  -14.7288  -11.0447   35.8591 C   0  0  0  0  0  0  0  0  0  0  0  0
  -14.8710  -12.4941   36.2055 O   0  0  0  0  0  0  0  0  0  0  0  0
  -15.3415  -13.4407   35.2675 C   0  0  0  0  0  0  0  0  0  0  0  0
  -15.9305  -12.8235   33.8369 S   0  0  0  0  0  0  0  0  0  0  0  0
  -15.4165  -15.2631   35.6981 S   0  0  0  0  0  0  0  0  0  0  0  0
  -14.1473  -16.2343   34.6889 C   0  0  0  0  0  0  0  0  0  0  0  0
  -14.1877  -17.8161   34.7224 C   0  0  0  0  0  0  0  0  0  0  0  0
  -13.1751  -18.7492   34.9407 C   0  0  0  0  0  0  0  0  0  0  0  0
  -13.6109  -19.9474   34.4051 N   0  0  0  0  0  0  0  0  0  0  0  0
  -12.9761  -21.1544   34.2380 C   0  0  0  0  0  0  0  0  0  0  0  0
  -13.6545  -22.2008   33.7871 C   0  0  0  0  0  0  0  0  0  0  0  0
  -15.0139  -21.8878   33.2707 C   0  0  0  0  0  0  0  0  0  0  0  0
  -15.5847  -20.7235   33.2880 N   0  0  0  0  0  0  0  0  0  0  0  0
  -14.9083  -19.7512   33.9562 C   0  0  0  0  0  0  0  0  0  0  0  0
  -15.2497  -18.4878   34.1292 N   0  0  0  0  0  0  0  0  0  0  0  0
  -13.0921  -10.4426   37.1670 H   0  0  0  0  0  0  0  0  0  0  0  0
  -14.0745   -9.0707   36.5553 H   0  0  0  0  0  0  0  0  0  0  0  0
  -14.6869  -10.1403   37.8426 H   0  0  0  0  0  0  0  0  0  0  0  0
  -14.0990  -10.9772   34.9647 H   0  0  0  0  0  0  0  0  0  0  0  0
  -15.7326  -10.6582   35.6505 H   0  0  0  0  0  0  0  0  0  0  0  0
  -14.2603  -15.9094   33.6588 H   0  0  0  0  0  0  0  0  0  0  0  0
  -13.1186  -15.9733   34.9448 H   0  0  0  0  0  0  0  0  0  0  0  0
  -12.1656  -18.6310   35.3003 H   0  0  0  0  0  0  0  0  0  0  0  0
  -12.0322  -21.2617   34.6998 H   0  0  0  0  0  0  0  0  0  0  0  0
  -13.2907  -23.2082   33.9144 H   0  0  0  0  0  0  0  0  0  0  0  0
  -15.6127  -22.7239   32.8819 H   0  0  0  0  0  0  0  0  0  0  0  0
  1  2  1  0
  2  3  1  0
  3  4  1  0
  4  5  2  0
  4  6  1  0
  6  7  1  0
  7  8  1  0
  8  9  2  0
  9 10  1  0
 10 11  1  0
 11 12  2  0
 12 13  1  0
 13 14  2  0
 14 15  1  0
 15 16  2  0
 16  8  1  0
 15 10  1  0
  1 17  1  0
  1 18  1  0
  1 19  1  0
  2 20  1  0
  2 21  1  0
  7 22  1  0
  7 23  1  0
  9 24  1  0
 11 25  1  0
 12 26  1  0
 13 27  1  0
M  END
>  <Energy>  (802) 
55.725484262614671

>  <compound_id>  (802) 
76631

>  <target_id>  (802) 
1

>  <reference_id>  (802) 
7

>  <inspiration_ids>  (802) 
[107, 7]

>  <energy_score>  (802) 
-0.23168583885684058

>  <distance_score>  (802) 
6.627215571536739

>  <path>  (802) 
/opt/xchem-fragalysis-2/maxwin/BulkDock/SCRATCH/511022/C76631-P7/C76631-P7.minimised.mol

>  <scratch_subdir>  (802) 
/opt/xchem-fragalysis-2/maxwin/BulkDock/SCRATCH/511022/C76631-P7

>  <fragmenstein_runtime>  (802) 
2.684781312942505

>  <fragmenstein_outcome>  (802) 
too moved

>  <fragmenstein_mode>  (802) 
expansion

>  <fragmenstein_error>  (802) 


$$$$
C76632-P107
     RDKit          3D

 41 42  0  0  0  0  0  0  0  0999 V2000
  -15.4337   -6.0649   39.1379 C   0  0  0  0  0  0  0  0  0  0  0  0
  -15.8467   -7.2614   38.2804 C   0  0  0  0  0  0  0  0  0  0  0  0
  -15.9980   -8.6457   39.0003 C   0  0  0  0  0  0  0  0  0  0  0  0
  -14.8280   -9.0098   39.9480 C   0  0  0  0  0  0  0  0  0  0  0  0
  -13.4069   -9.0012   39.4273 C   0  0  0  0  0  0  0  0  0  0  0  0
  -17.2659   -8.5710   39.9097 C   0  0  0  0  0  0  0  0  0  0  0  0
  -18.5984   -8.1929   39.2663 C   0  0  0  0  0  0  0  0  0  0  0  0
  -16.3379   -9.9881   37.6145 S   0  0  0  0  0  0  0  0  0  0  0  0
  -15.5389  -11.6605   38.0535 C   0  0  0  0  0  0  0  0  0  0  0  0
  -15.5266  -12.6575   36.7992 C   0  0  0  0  0  0  0  0  0  0  0  0
  -15.7159  -12.2304   35.6586 O   0  0  0  0  0  0  0  0  0  0  0  0
  -15.2736  -14.1094   37.0088 C   0  0  0  0  0  0  0  0  0  0  0  0
  -15.5351  -14.8955   38.1166 C   0  0  0  0  0  0  0  0  0  0  0  0
  -15.1233  -16.1941   37.9582 N   0  0  0  0  0  0  0  0  0  0  0  0
  -14.5939  -16.2677   36.7573 C   0  0  0  0  0  0  0  0  0  0  0  0
  -13.9801  -17.3454   36.1747 N   0  0  0  0  0  0  0  0  0  0  0  0
  -13.4484  -17.1436   35.0098 C   0  0  0  0  0  0  0  0  0  0  0  0
  -13.5049  -15.8743   34.2463 C   0  0  0  0  0  0  0  0  0  0  0  0
  -14.1625  -14.8632   34.8354 C   0  0  0  0  0  0  0  0  0  0  0  0
  -14.6904  -15.0241   36.1126 N   0  0  0  0  0  0  0  0  0  0  0  0
  -14.4645   -6.2154   39.6181 H   0  0  0  0  0  0  0  0  0  0  0  0
  -15.3612   -5.1678   38.5141 H   0  0  0  0  0  0  0  0  0  0  0  0
  -16.1748   -5.8644   39.9169 H   0  0  0  0  0  0  0  0  0  0  0  0
  -16.7835   -6.9980   37.7752 H   0  0  0  0  0  0  0  0  0  0  0  0
  -15.1477   -7.3554   37.4654 H   0  0  0  0  0  0  0  0  0  0  0  0
  -15.0218  -10.0093   40.3609 H   0  0  0  0  0  0  0  0  0  0  0  0
  -14.8467   -8.3433   40.8213 H   0  0  0  0  0  0  0  0  0  0  0  0
  -12.7658   -9.5680   40.1127 H   0  0  0  0  0  0  0  0  0  0  0  0
  -13.0048   -7.9896   39.4168 H   0  0  0  0  0  0  0  0  0  0  0  0
  -13.3218   -9.4759   38.4490 H   0  0  0  0  0  0  0  0  0  0  0  0
  -17.4044   -9.5485   40.3932 H   0  0  0  0  0  0  0  0  0  0  0  0
  -17.0902   -7.8647   40.7316 H   0  0  0  0  0  0  0  0  0  0  0  0
  -19.3998   -8.2874   40.0075 H   0  0  0  0  0  0  0  0  0  0  0  0
  -18.8566   -8.8411   38.4256 H   0  0  0  0  0  0  0  0  0  0  0  0
  -18.6046   -7.1541   38.9253 H   0  0  0  0  0  0  0  0  0  0  0  0
  -14.5065  -11.4975   38.3639 H   0  0  0  0  0  0  0  0  0  0  0  0
  -16.1283  -12.0992   38.8615 H   0  0  0  0  0  0  0  0  0  0  0  0
  -16.0074  -14.5886   39.0415 H   0  0  0  0  0  0  0  0  0  0  0  0
  -12.9171  -17.9734   34.5169 H   0  0  0  0  0  0  0  0  0  0  0  0
  -13.0323  -15.8076   33.2765 H   0  0  0  0  0  0  0  0  0  0  0  0
  -14.2787  -13.8905   34.3696 H   0  0  0  0  0  0  0  0  0  0  0  0
  1  2  1  0
  2  3  1  0
  3  4  1  0
  4  5  1  0
  3  6  1  0
  6  7  1  0
  3  8  1  0
  8  9  1  0
  9 10  1  0
 10 11  2  0
 10 12  1  0
 12 13  2  0
 13 14  1  0
 14 15  2  0
 15 16  1  0
 16 17  2  0
 17 18  1  0
 18 19  2  0
 19 20  1  0
 20 12  1  0
 20 15  1  0
  1 21  1  0
  1 22  1  0
  1 23  1  0
  2 24  1  0
  2 25  1  0
  4 26  1  0
  4 27  1  0
  5 28  1  0
  5 29  1  0
  5 30  1  0
  6 31  1  0
  6 32  1  0
  7 33  1  0
  7 34  1  0
  7 35  1  0
  9 36  1  0
  9 37  1  0
 13 38  1  0
 17 39  1  0
 18 40  1  0
 19 41  1  0
M  END
>  <Energy>  (803) 
77.263462400738604

>  <compound_id>  (803) 
76632

>  <target_id>  (803) 
1

>  <reference_id>  (803) 
107

>  <inspiration_ids>  (803) 
[107, 7]

>  <energy_score>  (803) 
-45.40471147275895

>  <distance_score>  (803) 
9.664916081434628

>  <path>  (803) 
/opt/xchem-fragalysis-2/maxwin/BulkDock/SCRATCH/511022/C76632-P107/C76632-P107.minimised.mol

>  <scratch_subdir>  (803) 
/opt/xchem-fragalysis-2/maxwin/BulkDock/SCRATCH/511022/C76632-P107

>  <fragmenstein_runtime>  (803) 
14.035265684127808

>  <fragmenstein_outcome>  (803) 
too moved

>  <fragmenstein_mode>  (803) 
expansion

>  <fragmenstein_error>  (803) 


$$$$
C76632-P7
     RDKit          3D

 41 42  0  0  0  0  0  0  0  0999 V2000
  -11.7705   -5.0697   35.8450 C   0  0  0  0  0  0  0  0  0  0  0  0
  -11.7192   -6.9529   35.5211 C   0  0  0  0  0  0  0  0  0  0  0  0
  -13.3209   -8.2806   36.1019 C   0  0  0  0  0  0  0  0  0  0  0  0
  -13.3753   -8.7743   37.7997 C   0  0  0  0  0  0  0  0  0  0  0  0
  -14.4168   -9.7574   38.3206 C   0  0  0  0  0  0  0  0  0  0  0  0
  -14.9887   -7.9013   36.0532 C   0  0  0  0  0  0  0  0  0  0  0  0
  -15.4680   -6.7011   36.8761 C   0  0  0  0  0  0  0  0  0  0  0  0
  -13.2730  -10.2321   35.1996 S   0  0  0  0  0  0  0  0  0  0  0  0
  -14.9952  -11.2701   35.1344 C   0  0  0  0  0  0  0  0  0  0  0  0
  -14.6595  -12.8011   34.7449 C   0  0  0  0  0  0  0  0  0  0  0  0
  -13.4963  -13.1135   34.5441 O   0  0  0  0  0  0  0  0  0  0  0  0
  -15.5812  -13.9519   34.6802 C   0  0  0  0  0  0  0  0  0  0  0  0
  -16.9550  -14.0373   34.7089 C   0  0  0  0  0  0  0  0  0  0  0  0
  -17.3946  -15.3415   34.7616 N   0  0  0  0  0  0  0  0  0  0  0  0
  -16.3240  -16.1036   34.7810 C   0  0  0  0  0  0  0  0  0  0  0  0
  -16.2408  -17.4606   34.9664 N   0  0  0  0  0  0  0  0  0  0  0  0
  -15.0528  -17.9822   34.9960 C   0  0  0  0  0  0  0  0  0  0  0  0
  -13.7935  -17.2660   34.6903 C   0  0  0  0  0  0  0  0  0  0  0  0
  -13.9418  -15.9587   34.4271 C   0  0  0  0  0  0  0  0  0  0  0  0
  -15.1858  -15.3213   34.5808 N   0  0  0  0  0  0  0  0  0  0  0  0
  -12.7155   -4.7319   36.2966 H   0  0  0  0  0  0  0  0  0  0  0  0
  -10.9756   -4.7962   36.5625 H   0  0  0  0  0  0  0  0  0  0  0  0
  -11.4959   -4.4464   35.0104 H   0  0  0  0  0  0  0  0  0  0  0  0
  -11.2547   -7.1053   34.5468 H   0  0  0  0  0  0  0  0  0  0  0  0
  -10.8230   -6.5820   35.9352 H   0  0  0  0  0  0  0  0  0  0  0  0
  -12.4462   -9.2554   38.1067 H   0  0  0  0  0  0  0  0  0  0  0  0
  -13.5207   -7.8984   38.4385 H   0  0  0  0  0  0  0  0  0  0  0  0
  -14.3328  -10.7369   37.8506 H   0  0  0  0  0  0  0  0  0  0  0  0
  -15.4454   -9.3980   38.2632 H   0  0  0  0  0  0  0  0  0  0  0  0
  -14.2308   -9.9276   39.3892 H   0  0  0  0  0  0  0  0  0  0  0  0
  -15.3878   -7.8436   35.0295 H   0  0  0  0  0  0  0  0  0  0  0  0
  -15.5498   -8.7730   36.3978 H   0  0  0  0  0  0  0  0  0  0  0  0
  -16.5362   -6.5419   36.6913 H   0  0  0  0  0  0  0  0  0  0  0  0
  -14.9545   -5.7721   36.6207 H   0  0  0  0  0  0  0  0  0  0  0  0
  -15.3570   -6.8667   37.9500 H   0  0  0  0  0  0  0  0  0  0  0  0
  -15.4707  -11.2428   36.1128 H   0  0  0  0  0  0  0  0  0  0  0  0
  -15.6079  -10.8200   34.3518 H   0  0  0  0  0  0  0  0  0  0  0  0
  -17.6686  -13.2225   34.7252 H   0  0  0  0  0  0  0  0  0  0  0  0
  -14.9454  -19.0617   35.1907 H   0  0  0  0  0  0  0  0  0  0  0  0
  -12.8588  -17.8054   34.6130 H   0  0  0  0  0  0  0  0  0  0  0  0
  -13.1005  -15.3650   34.1031 H   0  0  0  0  0  0  0  0  0  0  0  0
  1  2  1  0
  2  3  1  0
  3  4  1  0
  4  5  1  0
  3  6  1  0
  6  7  1  0
  3  8  1  0
  8  9  1  0
  9 10  1  0
 10 11  2  0
 10 12  1  0
 12 13  2  0
 13 14  1  0
 14 15  2  0
 15 16  1  0
 16 17  2  0
 17 18  1  0
 18 19  2  0
 19 20  1  0
 20 12  1  0
 20 15  1  0
  1 21  1  0
  1 22  1  0
  1 23  1  0
  2 24  1  0
  2 25  1  0
  4 26  1  0
  4 27  1  0
  5 28  1  0
  5 29  1  0
  5 30  1  0
  6 31  1  0
  6 32  1  0
  7 33  1  0
  7 34  1  0
  7 35  1  0
  9 36  1  0
  9 37  1  0
 13 38  1  0
 17 39  1  0
 18 40  1  0
 19 41  1  0
M  END
>  <Energy>  (804) 
335.70973634772918

>  <compound_id>  (804) 
76632

>  <target_id>  (804) 
1

>  <reference_id>  (804) 
7

>  <inspiration_ids>  (804) 
[107, 7]

>  <energy_score>  (804) 
213.04156247423077

>  <distance_score>  (804) 
9.017359597191922

>  <path>  (804) 
/opt/xchem-fragalysis-2/maxwin/BulkDock/SCRATCH/511022/C76632-P7/C76632-P7.minimised.mol

>  <scratch_subdir>  (804) 
/opt/xchem-fragalysis-2/maxwin/BulkDock/SCRATCH/511022/C76632-P7

>  <fragmenstein_runtime>  (804) 
13.793221950531006

>  <fragmenstein_outcome>  (804) 
too moved

>  <fragmenstein_mode>  (804) 
expansion

>  <fragmenstein_error>  (804) 


$$$$
C76633-P107
     RDKit          3D

 25 26  0  0  0  0  0  0  0  0999 V2000
  -15.2474   -9.8068   38.3655 C   0  0  0  0  0  0  0  0  0  0  0  0
  -14.5444  -11.0143   37.7538 C   0  0  0  0  0  0  0  0  0  0  0  0
  -15.4684  -11.8922   36.8986 C   0  0  0  0  0  0  0  0  0  0  0  0
  -16.2290  -11.3499   36.0876 O   0  0  0  0  0  0  0  0  0  0  0  0
  -15.4852  -13.4490   37.1196 C   0  0  0  0  0  0  0  0  0  0  0  0
  -14.8776  -14.3032   36.0186 C   0  0  0  0  0  0  0  0  0  0  0  0
  -14.2690  -13.9076   34.8481 C   0  0  0  0  0  0  0  0  0  0  0  0
  -13.6397  -14.9478   34.2229 N   0  0  0  0  0  0  0  0  0  0  0  0
  -14.0219  -16.0393   34.8392 C   0  0  0  0  0  0  0  0  0  0  0  0
  -13.7977  -17.3427   34.4847 N   0  0  0  0  0  0  0  0  0  0  0  0
  -14.2146  -18.2440   35.3122 C   0  0  0  0  0  0  0  0  0  0  0  0
  -14.9529  -17.9863   36.5756 C   0  0  0  0  0  0  0  0  0  0  0  0
  -15.1966  -16.6943   36.8534 C   0  0  0  0  0  0  0  0  0  0  0  0
  -14.7478  -15.6986   35.9882 N   0  0  0  0  0  0  0  0  0  0  0  0
  -15.9574  -10.1386   39.1312 H   0  0  0  0  0  0  0  0  0  0  0  0
  -14.5223   -9.1420   38.8434 H   0  0  0  0  0  0  0  0  0  0  0  0
  -15.8215   -9.2392   37.6310 H   0  0  0  0  0  0  0  0  0  0  0  0
  -13.7209  -10.6773   37.1188 H   0  0  0  0  0  0  0  0  0  0  0  0
  -14.1330  -11.6132   38.5715 H   0  0  0  0  0  0  0  0  0  0  0  0
  -16.5378  -13.7310   37.2463 H   0  0  0  0  0  0  0  0  0  0  0  0
  -14.9898  -13.6700   38.0706 H   0  0  0  0  0  0  0  0  0  0  0  0
  -14.1779  -12.8954   34.4690 H   0  0  0  0  0  0  0  0  0  0  0  0
  -14.0362  -19.3046   35.0743 H   0  0  0  0  0  0  0  0  0  0  0  0
  -15.2711  -18.8157   37.1896 H   0  0  0  0  0  0  0  0  0  0  0  0
  -15.7400  -16.3766   37.7325 H   0  0  0  0  0  0  0  0  0  0  0  0
  1  2  1  0
  2  3  1  0
  3  4  2  0
  3  5  1  0
  5  6  1  0
  6  7  2  0
  7  8  1  0
  8  9  2  0
  9 10  1  0
 10 11  2  0
 11 12  1  0
 12 13  2  0
 13 14  1  0
 14  6  1  0
 14  9  1  0
  1 15  1  0
  1 16  1  0
  1 17  1  0
  2 18  1  0
  2 19  1  0
  5 20  1  0
  5 21  1  0
  7 22  1  0
 11 23  1  0
 12 24  1  0
 13 25  1  0
M  END
>  <Energy>  (805) 
45.740595110336521

>  <compound_id>  (805) 
76633

>  <target_id>  (805) 
1

>  <reference_id>  (805) 
107

>  <inspiration_ids>  (805) 
[107, 7]

>  <energy_score>  (805) 
-17.50963256106401

>  <distance_score>  (805) 
9.367859337812234

>  <path>  (805) 
/opt/xchem-fragalysis-2/maxwin/BulkDock/SCRATCH/511022/C76633-P107/C76633-P107.minimised.mol

>  <scratch_subdir>  (805) 
/opt/xchem-fragalysis-2/maxwin/BulkDock/SCRATCH/511022/C76633-P107

>  <fragmenstein_runtime>  (805) 
5.348794460296631

>  <fragmenstein_outcome>  (805) 
too moved

>  <fragmenstein_mode>  (805) 
expansion

>  <fragmenstein_error>  (805) 


$$$$
C76633-P7
     RDKit          3D

 25 26  0  0  0  0  0  0  0  0999 V2000
  -14.6394   -9.8502   36.5262 C   0  0  0  0  0  0  0  0  0  0  0  0
  -14.5585  -10.8668   35.3929 C   0  0  0  0  0  0  0  0  0  0  0  0
  -15.1426  -12.2460   35.7608 C   0  0  0  0  0  0  0  0  0  0  0  0
  -15.6555  -12.4439   36.8611 O   0  0  0  0  0  0  0  0  0  0  0  0
  -15.0131  -13.3548   34.6762 C   0  0  0  0  0  0  0  0  0  0  0  0
  -15.5549  -14.7719   34.9489 C   0  0  0  0  0  0  0  0  0  0  0  0
  -16.8604  -15.1318   35.2346 C   0  0  0  0  0  0  0  0  0  0  0  0
  -17.0349  -16.4868   35.2786 N   0  0  0  0  0  0  0  0  0  0  0  0
  -15.8576  -17.0247   35.0768 C   0  0  0  0  0  0  0  0  0  0  0  0
  -15.5333  -18.3539   35.0470 N   0  0  0  0  0  0  0  0  0  0  0  0
  -14.2764  -18.6462   34.9443 C   0  0  0  0  0  0  0  0  0  0  0  0
  -13.1870  -17.6668   34.7558 C   0  0  0  0  0  0  0  0  0  0  0  0
  -13.5738  -16.3885   34.6171 C   0  0  0  0  0  0  0  0  0  0  0  0
  -14.9027  -16.0236   34.8475 N   0  0  0  0  0  0  0  0  0  0  0  0
  -14.0850  -10.2021   37.4025 H   0  0  0  0  0  0  0  0  0  0  0  0
  -14.2212   -8.8927   36.2194 H   0  0  0  0  0  0  0  0  0  0  0  0
  -15.6786   -9.6886   36.8304 H   0  0  0  0  0  0  0  0  0  0  0  0
  -15.1060  -10.4924   34.5219 H   0  0  0  0  0  0  0  0  0  0  0  0
  -13.5102  -11.0100   35.1130 H   0  0  0  0  0  0  0  0  0  0  0  0
  -15.5561  -12.9649   33.8059 H   0  0  0  0  0  0  0  0  0  0  0  0
  -13.9598  -13.4225   34.4117 H   0  0  0  0  0  0  0  0  0  0  0  0
  -17.7026  -14.4659   35.3873 H   0  0  0  0  0  0  0  0  0  0  0  0
  -13.9640  -19.7029   34.9323 H   0  0  0  0  0  0  0  0  0  0  0  0
  -12.1731  -18.0254   34.6460 H   0  0  0  0  0  0  0  0  0  0  0  0
  -12.8587  -15.6249   34.3569 H   0  0  0  0  0  0  0  0  0  0  0  0
  1  2  1  0
  2  3  1  0
  3  4  2  0
  3  5  1  0
  5  6  1  0
  6  7  2  0
  7  8  1  0
  8  9  2  0
  9 10  1  0
 10 11  2  0
 11 12  1  0
 12 13  2  0
 13 14  1  0
 14  6  1  0
 14  9  1  0
  1 15  1  0
  1 16  1  0
  1 17  1  0
  2 18  1  0
  2 19  1  0
  5 20  1  0
  5 21  1  0
  7 22  1  0
 11 23  1  0
 12 24  1  0
 13 25  1  0
M  END
>  <Energy>  (806) 
46.678638603795655

>  <compound_id>  (806) 
76633

>  <target_id>  (806) 
1

>  <reference_id>  (806) 
7

>  <inspiration_ids>  (806) 
[107, 7]

>  <energy_score>  (806) 
-16.571589067604776

>  <distance_score>  (806) 
8.987713952387134

>  <path>  (806) 
/opt/xchem-fragalysis-2/maxwin/BulkDock/SCRATCH/511022/C76633-P7/C76633-P7.minimised.mol

>  <scratch_subdir>  (806) 
/opt/xchem-fragalysis-2/maxwin/BulkDock/SCRATCH/511022/C76633-P7

>  <fragmenstein_runtime>  (806) 
8.099271297454834

>  <fragmenstein_outcome>  (806) 
too moved

>  <fragmenstein_mode>  (806) 
expansion

>  <fragmenstein_error>  (806) 


$$$$
C76638-P107
     RDKit          3D

 21 22  0  0  0  0  0  0  0  0999 V2000
  -14.5437  -11.8628   35.7538 C   0  0  0  0  0  0  0  0  0  0  0  0
  -14.9262  -13.2208   36.1521 O   0  0  0  0  0  0  0  0  0  0  0  0
  -14.0918  -14.3095   35.4711 N   0  0  0  0  0  0  0  0  0  0  0  0
  -14.5498  -15.5921   35.6159 C   0  0  0  0  0  0  0  0  0  0  0  0
  -14.0546  -17.1512   35.1170 C   0  0  0  0  0  0  0  0  0  0  0  0
  -14.9042  -18.2807   34.9771 C   0  0  0  0  0  0  0  0  0  0  0  0
  -14.1945  -19.3654   34.4376 N   0  0  0  0  0  0  0  0  0  0  0  0
  -14.6289  -20.5967   33.8828 C   0  0  0  0  0  0  0  0  0  0  0  0
  -13.7599  -21.4644   33.3317 C   0  0  0  0  0  0  0  0  0  0  0  0
  -12.3520  -21.0098   33.4090 C   0  0  0  0  0  0  0  0  0  0  0  0
  -11.9358  -19.8812   33.9193 N   0  0  0  0  0  0  0  0  0  0  0  0
  -12.8632  -18.9835   34.4312 C   0  0  0  0  0  0  0  0  0  0  0  0
  -12.7734  -17.6866   34.8110 N   0  0  0  0  0  0  0  0  0  0  0  0
  -14.4533  -11.2504   36.6530 H   0  0  0  0  0  0  0  0  0  0  0  0
  -13.6154  -11.9039   35.1883 H   0  0  0  0  0  0  0  0  0  0  0  0
  -15.3510  -11.4856   35.1235 H   0  0  0  0  0  0  0  0  0  0  0  0
  -15.5089  -15.6838   36.1575 H   0  0  0  0  0  0  0  0  0  0  0  0
  -15.9704  -18.3691   35.1290 H   0  0  0  0  0  0  0  0  0  0  0  0
  -15.6935  -20.7930   33.9196 H   0  0  0  0  0  0  0  0  0  0  0  0
  -14.0172  -22.4220   32.8988 H   0  0  0  0  0  0  0  0  0  0  0  0
  -11.6211  -21.7100   32.9742 H   0  0  0  0  0  0  0  0  0  0  0  0
  1  2  1  0
  2  3  1  0
  3  4  2  3
  4  5  1  0
  5  6  2  0
  6  7  1  0
  7  8  1  0
  8  9  2  0
  9 10  1  0
 10 11  2  0
 11 12  1  0
 12 13  2  0
 13  5  1  0
 12  7  1  0
  1 14  1  0
  1 15  1  0
  1 16  1  0
  4 17  1  0
  6 18  1  0
  8 19  1  0
  9 20  1  0
 10 21  1  0
M  END
>  <Energy>  (807) 
114.64629254043476

>  <compound_id>  (807) 
76638

>  <target_id>  (807) 
1

>  <reference_id>  (807) 
107

>  <inspiration_ids>  (807) 
[107, 7]

>  <energy_score>  (807) 
24.49516161147261

>  <distance_score>  (807) 
7.03452717563685

>  <path>  (807) 
/opt/xchem-fragalysis-2/maxwin/BulkDock/SCRATCH/511022/C76638-P107/C76638-P107.minimised.mol

>  <scratch_subdir>  (807) 
/opt/xchem-fragalysis-2/maxwin/BulkDock/SCRATCH/511022/C76638-P107

>  <fragmenstein_runtime>  (807) 
1.532970905303955

>  <fragmenstein_outcome>  (807) 
too moved

>  <fragmenstein_mode>  (807) 
expansion

>  <fragmenstein_error>  (807) 


$$$$
C76638-P7
     RDKit          3D

 21 22  0  0  0  0  0  0  0  0999 V2000
  -14.3152  -11.1693   35.4977 C   0  0  0  0  0  0  0  0  0  0  0  0
  -15.1288  -12.3987   35.5198 O   0  0  0  0  0  0  0  0  0  0  0  0
  -14.3784  -13.6241   34.9998 N   0  0  0  0  0  0  0  0  0  0  0  0
  -15.0210  -14.8419   35.0490 C   0  0  0  0  0  0  0  0  0  0  0  0
  -14.4730  -16.4856   34.8997 C   0  0  0  0  0  0  0  0  0  0  0  0
  -15.2789  -17.6466   35.0371 C   0  0  0  0  0  0  0  0  0  0  0  0
  -14.5548  -18.7890   34.6679 N   0  0  0  0  0  0  0  0  0  0  0  0
  -14.9886  -20.0773   34.2788 C   0  0  0  0  0  0  0  0  0  0  0  0
  -14.1188  -21.0062   33.8508 C   0  0  0  0  0  0  0  0  0  0  0  0
  -12.7083  -20.5591   33.9178 C   0  0  0  0  0  0  0  0  0  0  0  0
  -12.2913  -19.3671   34.2678 N   0  0  0  0  0  0  0  0  0  0  0  0
  -13.2301  -18.3929   34.5888 C   0  0  0  0  0  0  0  0  0  0  0  0
  -13.1754  -17.0382   34.6824 N   0  0  0  0  0  0  0  0  0  0  0  0
  -13.4261  -11.3199   36.1129 H   0  0  0  0  0  0  0  0  0  0  0  0
  -14.9246  -10.3609   35.9064 H   0  0  0  0  0  0  0  0  0  0  0  0
  -14.0435  -10.9508   34.4629 H   0  0  0  0  0  0  0  0  0  0  0  0
  -16.0818  -14.8213   35.3567 H   0  0  0  0  0  0  0  0  0  0  0  0
  -16.3327  -17.7409   35.2573 H   0  0  0  0  0  0  0  0  0  0  0  0
  -16.0528  -20.2693   34.3375 H   0  0  0  0  0  0  0  0  0  0  0  0
  -14.3741  -22.0151   33.5633 H   0  0  0  0  0  0  0  0  0  0  0  0
  -11.9916  -21.3292   33.6017 H   0  0  0  0  0  0  0  0  0  0  0  0
  1  2  1  0
  2  3  1  0
  3  4  2  3
  4  5  1  0
  5  6  2  0
  6  7  1  0
  7  8  1  0
  8  9  2  0
  9 10  1  0
 10 11  2  0
 11 12  1  0
 12 13  2  0
 13  5  1  0
 12  7  1  0
  1 14  1  0
  1 15  1  0
  1 16  1  0
  4 17  1  0
  6 18  1  0
  8 19  1  0
  9 20  1  0
 10 21  1  0
M  END
>  <Energy>  (808) 
118.34076535057618

>  <compound_id>  (808) 
76638

>  <target_id>  (808) 
1

>  <reference_id>  (808) 
7

>  <inspiration_ids>  (808) 
[107, 7]

>  <energy_score>  (808) 
28.189634421612624

>  <distance_score>  (808) 
7.241212098665005

>  <path>  (808) 
/opt/xchem-fragalysis-2/maxwin/BulkDock/SCRATCH/511022/C76638-P7/C76638-P7.minimised.mol

>  <scratch_subdir>  (808) 
/opt/xchem-fragalysis-2/maxwin/BulkDock/SCRATCH/511022/C76638-P7

>  <fragmenstein_runtime>  (808) 
1.2738418579101562

>  <fragmenstein_outcome>  (808) 
too moved

>  <fragmenstein_mode>  (808) 
expansion

>  <fragmenstein_error>  (808) 


$$$$
C76644-P107
     RDKit          3D

 21 22  0  0  0  0  0  0  0  0999 V2000
  -14.6850  -12.1214   35.7483 C   0  0  0  0  0  0  0  0  0  0  0  0
  -13.8859  -13.2158   35.1808 O   0  0  0  0  0  0  0  0  0  0  0  0
  -14.4126  -14.6046   35.5114 N   0  0  0  0  0  0  0  0  0  0  0  0
  -13.7215  -15.6860   34.9862 C   0  0  0  0  0  0  0  0  0  0  0  0
  -14.1034  -17.3009   34.9780 C   0  0  0  0  0  0  0  0  0  0  0  0
  -15.3930  -17.7301   35.2741 C   0  0  0  0  0  0  0  0  0  0  0  0
  -15.7197  -18.9638   34.7724 N   0  0  0  0  0  0  0  0  0  0  0  0
  -14.6354  -19.4913   34.2794 C   0  0  0  0  0  0  0  0  0  0  0  0
  -14.5510  -20.6941   33.6134 N   0  0  0  0  0  0  0  0  0  0  0  0
  -13.3691  -21.1573   33.3798 C   0  0  0  0  0  0  0  0  0  0  0  0
  -12.1454  -20.4001   33.6986 C   0  0  0  0  0  0  0  0  0  0  0  0
  -12.2631  -19.1986   34.3209 C   0  0  0  0  0  0  0  0  0  0  0  0
  -13.5304  -18.6335   34.5608 N   0  0  0  0  0  0  0  0  0  0  0  0
  -15.2482  -12.4901   36.6102 H   0  0  0  0  0  0  0  0  0  0  0  0
  -15.3730  -11.7741   34.9750 H   0  0  0  0  0  0  0  0  0  0  0  0
  -14.0208  -11.3205   36.0650 H   0  0  0  0  0  0  0  0  0  0  0  0
  -12.8107  -15.4755   34.4031 H   0  0  0  0  0  0  0  0  0  0  0  0
  -16.1718  -17.1062   35.7005 H   0  0  0  0  0  0  0  0  0  0  0  0
  -13.2327  -22.1324   32.8840 H   0  0  0  0  0  0  0  0  0  0  0  0
  -11.2553  -20.7611   33.2348 H   0  0  0  0  0  0  0  0  0  0  0  0
  -11.4201  -18.5623   34.5466 H   0  0  0  0  0  0  0  0  0  0  0  0
  1  2  1  0
  2  3  1  0
  3  4  2  3
  4  5  1  0
  5  6  2  0
  6  7  1  0
  7  8  2  0
  8  9  1  0
  9 10  2  0
 10 11  1  0
 11 12  2  0
 12 13  1  0
 13  5  1  0
 13  8  1  0
  1 14  1  0
  1 15  1  0
  1 16  1  0
  4 17  1  0
  6 18  1  0
 10 19  1  0
 11 20  1  0
 12 21  1  0
M  END
>  <Energy>  (809) 
93.097182962583986

>  <compound_id>  (809) 
76644

>  <target_id>  (809) 
1

>  <reference_id>  (809) 
107

>  <inspiration_ids>  (809) 
[107, 7]

>  <energy_score>  (809) 
30.823299745159304

>  <distance_score>  (809) 
7.32028589658293

>  <path>  (809) 
/opt/xchem-fragalysis-2/maxwin/BulkDock/SCRATCH/511022/C76644-P107/C76644-P107.minimised.mol

>  <scratch_subdir>  (809) 
/opt/xchem-fragalysis-2/maxwin/BulkDock/SCRATCH/511022/C76644-P107

>  <fragmenstein_runtime>  (809) 
2.763383626937866

>  <fragmenstein_outcome>  (809) 
too moved

>  <fragmenstein_mode>  (809) 
expansion

>  <fragmenstein_error>  (809) 


$$$$
C76644-P7
     RDKit          3D

 21 22  0  0  0  0  0  0  0  0999 V2000
  -14.5676  -11.7568   35.3432 C   0  0  0  0  0  0  0  0  0  0  0  0
  -13.9204  -12.9298   34.7345 O   0  0  0  0  0  0  0  0  0  0  0  0
  -14.5861  -14.2841   35.0115 N   0  0  0  0  0  0  0  0  0  0  0  0
  -13.9803  -15.4296   34.4838 C   0  0  0  0  0  0  0  0  0  0  0  0
  -14.3405  -16.9992   34.7948 C   0  0  0  0  0  0  0  0  0  0  0  0
  -15.5843  -17.3489   35.3088 C   0  0  0  0  0  0  0  0  0  0  0  0
  -15.9963  -18.6040   34.9567 N   0  0  0  0  0  0  0  0  0  0  0  0
  -14.9757  -19.2142   34.4297 C   0  0  0  0  0  0  0  0  0  0  0  0
  -14.9897  -20.4575   33.8599 N   0  0  0  0  0  0  0  0  0  0  0  0
  -13.8473  -21.0339   33.7250 C   0  0  0  0  0  0  0  0  0  0  0  0
  -12.5685  -20.3598   33.9961 C   0  0  0  0  0  0  0  0  0  0  0  0
  -12.5859  -19.0652   34.4178 C   0  0  0  0  0  0  0  0  0  0  0  0
  -13.8199  -18.3927   34.5748 N   0  0  0  0  0  0  0  0  0  0  0  0
  -14.6139  -11.8843   36.4256 H   0  0  0  0  0  0  0  0  0  0  0  0
  -13.9676  -10.8798   35.0911 H   0  0  0  0  0  0  0  0  0  0  0  0
  -15.5706  -11.6615   34.9216 H   0  0  0  0  0  0  0  0  0  0  0  0
  -13.1043  -15.2934   33.8279 H   0  0  0  0  0  0  0  0  0  0  0  0
  -16.3010  -16.6580   35.7416 H   0  0  0  0  0  0  0  0  0  0  0  0
  -13.7850  -22.0707   33.3886 H   0  0  0  0  0  0  0  0  0  0  0  0
  -11.7420  -20.9397   33.6642 H   0  0  0  0  0  0  0  0  0  0  0  0
  -11.7047  -18.4585   34.5507 H   0  0  0  0  0  0  0  0  0  0  0  0
  1  2  1  0
  2  3  1  0
  3  4  2  3
  4  5  1  0
  5  6  2  0
  6  7  1  0
  7  8  2  0
  8  9  1  0
  9 10  2  0
 10 11  1  0
 11 12  2  0
 12 13  1  0
 13  5  1  0
 13  8  1  0
  1 14  1  0
  1 15  1  0
  1 16  1  0
  4 17  1  0
  6 18  1  0
 10 19  1  0
 11 20  1  0
 12 21  1  0
M  END
>  <Energy>  (810) 
98.06928805815609

>  <compound_id>  (810) 
76644

>  <target_id>  (810) 
1

>  <reference_id>  (810) 
7

>  <inspiration_ids>  (810) 
[107, 7]

>  <energy_score>  (810) 
35.79540484072939

>  <distance_score>  (810) 
7.41431613222649

>  <path>  (810) 
/opt/xchem-fragalysis-2/maxwin/BulkDock/SCRATCH/511022/C76644-P7/C76644-P7.minimised.mol

>  <scratch_subdir>  (810) 
/opt/xchem-fragalysis-2/maxwin/BulkDock/SCRATCH/511022/C76644-P7

>  <fragmenstein_runtime>  (810) 
1.6830542087554932

>  <fragmenstein_outcome>  (810) 
too moved

>  <fragmenstein_mode>  (810) 
expansion

>  <fragmenstein_error>  (810) 


$$$$
C76646-P107
     RDKit          3D

 22 23  0  0  0  0  0  0  0  0999 V2000
   -8.7837   -8.4842   33.4200 C   0  0  0  0  0  0  0  0  0  0  0  0
  -10.1507   -9.2441   33.6120 C   0  0  0  0  0  0  0  0  0  0  0  0
  -10.3842   -9.3900   32.3956 O   0  0  0  0  0  0  0  0  0  0  0  0
  -11.0165  -10.0025   35.2454 C   0  0  0  0  0  0  0  0  0  0  0  0
  -12.4974  -10.5949   36.2607 C   0  0  0  0  0  0  0  0  0  0  0  0
  -12.7848  -10.3730   37.6247 C   0  0  0  0  0  0  0  0  0  0  0  0
  -14.0448  -10.7713   38.0213 N   0  0  0  0  0  0  0  0  0  0  0  0
  -14.5278  -11.5094   37.0485 C   0  0  0  0  0  0  0  0  0  0  0  0
  -15.5812  -12.3963   37.1123 N   0  0  0  0  0  0  0  0  0  0  0  0
  -15.7534  -13.1703   36.0875 C   0  0  0  0  0  0  0  0  0  0  0  0
  -15.0458  -13.0857   34.8020 C   0  0  0  0  0  0  0  0  0  0  0  0
  -14.0800  -12.1649   34.7914 C   0  0  0  0  0  0  0  0  0  0  0  0
  -13.6925  -11.4278   35.9125 N   0  0  0  0  0  0  0  0  0  0  0  0
   -8.6677   -8.2289   32.3507 H   0  0  0  0  0  0  0  0  0  0  0  0
   -8.7019   -7.4827   33.8392 H   0  0  0  0  0  0  0  0  0  0  0  0
   -7.9342   -9.1597   33.5635 H   0  0  0  0  0  0  0  0  0  0  0  0
  -10.2966  -10.5289   35.8562 H   0  0  0  0  0  0  0  0  0  0  0  0
  -11.6287  -10.6326   34.6507 H   0  0  0  0  0  0  0  0  0  0  0  0
  -12.1496   -9.9069   38.3663 H   0  0  0  0  0  0  0  0  0  0  0  0
  -16.5447  -13.9337   36.1366 H   0  0  0  0  0  0  0  0  0  0  0  0
  -15.3743  -13.6485   33.9445 H   0  0  0  0  0  0  0  0  0  0  0  0
  -13.5921  -11.8828   33.9073 H   0  0  0  0  0  0  0  0  0  0  0  0
  1  2  1  0
  2  3  2  0
  2  4  1  0
  4  5  1  0
  5  6  2  0
  6  7  1  0
  7  8  2  0
  8  9  1  0
  9 10  2  0
 10 11  1  0
 11 12  2  0
 12 13  1  0
 13  5  1  0
 13  8  1  0
  1 14  1  0
  1 15  1  0
  1 16  1  0
  4 17  1  0
  4 18  1  0
  6 19  1  0
 10 20  1  0
 11 21  1  0
 12 22  1  0
M  END
>  <Energy>  (811) 
256.54323091304695

>  <compound_id>  (811) 
76646

>  <target_id>  (811) 
1

>  <reference_id>  (811) 
107

>  <inspiration_ids>  (811) 
[107, 7]

>  <energy_score>  (811) 
196.97141077668675

>  <distance_score>  (811) 
12.267978483684168

>  <path>  (811) 
/opt/xchem-fragalysis-2/maxwin/BulkDock/SCRATCH/511022/C76646-P107/C76646-P107.minimised.mol

>  <scratch_subdir>  (811) 
/opt/xchem-fragalysis-2/maxwin/BulkDock/SCRATCH/511022/C76646-P107

>  <fragmenstein_runtime>  (811) 
3.9463963508605957

>  <fragmenstein_outcome>  (811) 
too moved

>  <fragmenstein_mode>  (811) 
expansion

>  <fragmenstein_error>  (811) 


$$$$
C76646-P7
     RDKit          3D

 22 23  0  0  0  0  0  0  0  0999 V2000
  -16.4274  -12.9753   35.1413 C   0  0  0  0  0  0  0  0  0  0  0  0
  -16.1026  -13.5007   36.5104 C   0  0  0  0  0  0  0  0  0  0  0  0
  -15.6067  -12.7357   37.3484 O   0  0  0  0  0  0  0  0  0  0  0  0
  -16.4277  -14.9643   36.8980 C   0  0  0  0  0  0  0  0  0  0  0  0
  -16.1704  -16.0577   35.8837 C   0  0  0  0  0  0  0  0  0  0  0  0
  -16.9780  -16.4283   34.8227 C   0  0  0  0  0  0  0  0  0  0  0  0
  -16.5131  -17.5377   34.1874 N   0  0  0  0  0  0  0  0  0  0  0  0
  -15.4361  -17.9076   34.8379 C   0  0  0  0  0  0  0  0  0  0  0  0
  -14.5807  -18.9040   34.4786 N   0  0  0  0  0  0  0  0  0  0  0  0
  -13.4868  -19.0002   35.1669 C   0  0  0  0  0  0  0  0  0  0  0  0
  -13.1425  -18.1699   36.3494 C   0  0  0  0  0  0  0  0  0  0  0  0
  -14.0429  -17.2320   36.6846 C   0  0  0  0  0  0  0  0  0  0  0  0
  -15.1708  -17.0379   35.8938 N   0  0  0  0  0  0  0  0  0  0  0  0
  -15.7886  -13.4605   34.4014 H   0  0  0  0  0  0  0  0  0  0  0  0
  -16.2497  -11.8967   35.1053 H   0  0  0  0  0  0  0  0  0  0  0  0
  -17.4802  -13.1629   34.9176 H   0  0  0  0  0  0  0  0  0  0  0  0
  -17.4949  -14.9783   37.1548 H   0  0  0  0  0  0  0  0  0  0  0  0
  -15.8886  -15.1949   37.8239 H   0  0  0  0  0  0  0  0  0  0  0  0
  -17.8965  -15.9535   34.4967 H   0  0  0  0  0  0  0  0  0  0  0  0
  -12.7469  -19.7722   34.8984 H   0  0  0  0  0  0  0  0  0  0  0  0
  -12.2310  -18.3697   36.8936 H   0  0  0  0  0  0  0  0  0  0  0  0
  -13.9142  -16.5979   37.5511 H   0  0  0  0  0  0  0  0  0  0  0  0
  1  2  1  0
  2  3  2  0
  2  4  1  0
  4  5  1  0
  5  6  2  0
  6  7  1  0
  7  8  2  0
  8  9  1  0
  9 10  2  0
 10 11  1  0
 11 12  2  0
 12 13  1  0
 13  5  1  0
 13  8  1  0
  1 14  1  0
  1 15  1  0
  1 16  1  0
  4 17  1  0
  4 18  1  0
  6 19  1  0
 10 20  1  0
 11 21  1  0
 12 22  1  0
M  END
>  <Energy>  (812) 
43.822624297120385

>  <compound_id>  (812) 
76646

>  <target_id>  (812) 
1

>  <reference_id>  (812) 
7

>  <inspiration_ids>  (812) 
[107, 7]

>  <energy_score>  (812) 
-15.749195839241509

>  <distance_score>  (812) 
9.323010168091319

>  <path>  (812) 
/opt/xchem-fragalysis-2/maxwin/BulkDock/SCRATCH/511022/C76646-P7/C76646-P7.minimised.mol

>  <scratch_subdir>  (812) 
/opt/xchem-fragalysis-2/maxwin/BulkDock/SCRATCH/511022/C76646-P7

>  <fragmenstein_runtime>  (812) 
4.206348657608032

>  <fragmenstein_outcome>  (812) 
too moved

>  <fragmenstein_mode>  (812) 
expansion

>  <fragmenstein_error>  (812) 


$$$$
C76653-P107
     RDKit          3D

 37 39  0  0  0  0  0  0  0  0999 V2000
  -11.7192  -18.7078   39.4842 O   0  0  0  0  0  0  0  0  0  0  0  0
  -11.8047  -17.5629   39.4013 C   0  0  0  0  0  0  0  0  0  0  0  0
  -12.9875  -16.6164   39.0099 N   0  0  0  0  0  0  0  0  0  0  0  0
  -14.1948  -16.7819   38.5508 C   0  0  0  0  0  0  0  0  0  0  0  0
  -14.7306  -15.6752   37.1849 C   0  0  0  0  0  0  0  0  0  0  0  0
  -15.7325  -16.5344   36.4116 C   0  0  0  0  0  0  0  0  0  0  0  0
  -15.1367  -17.7985   35.8716 N   0  0  0  0  0  0  0  0  0  0  0  0
  -15.6990  -18.8046   34.9426 C   0  0  0  0  0  0  0  0  0  0  0  0
  -16.7770  -18.8910   34.4814 O   0  0  0  0  0  0  0  0  0  0  0  0
  -14.4849  -19.6072   34.6910 N   0  0  0  0  0  0  0  0  0  0  0  0
  -14.2463  -20.6150   33.7897 C   0  0  0  0  0  0  0  0  0  0  0  0
  -15.2286  -20.9805   32.7139 C   0  0  0  0  0  0  0  0  0  0  0  0
  -14.9808  -21.7042   31.6661 N   0  0  0  0  0  0  0  0  0  0  0  0
  -13.7587  -22.3056   31.6014 C   0  0  0  0  0  0  0  0  0  0  0  0
  -13.2048  -22.9780   30.6100 N   0  0  0  0  0  0  0  0  0  0  0  0
  -12.0106  -23.4325   31.0930 C   0  0  0  0  0  0  0  0  0  0  0  0
  -11.7617  -22.9238   32.3429 C   0  0  0  0  0  0  0  0  0  0  0  0
  -12.8519  -22.1529   32.6405 N   0  0  0  0  0  0  0  0  0  0  0  0
  -13.0755  -21.2708   33.6897 C   0  0  0  0  0  0  0  0  0  0  0  0
  -15.3338  -18.2534   37.3195 C   0  0  0  0  0  0  0  0  0  0  0  0
  -14.8184  -17.2562   38.7241 C   0  0  0  0  0  0  0  0  0  0  0  0
  -10.9832  -16.8481   39.6034 H   0  0  0  0  0  0  0  0  0  0  0  0
  -14.2209  -15.6563   39.1115 H   0  0  0  0  0  0  0  0  0  0  0  0
  -13.4501  -17.1551   37.6192 H   0  0  0  0  0  0  0  0  0  0  0  0
  -13.8550  -15.4048   36.5862 H   0  0  0  0  0  0  0  0  0  0  0  0
  -15.2086  -14.7777   37.5965 H   0  0  0  0  0  0  0  0  0  0  0  0
  -15.9660  -15.9458   35.5195 H   0  0  0  0  0  0  0  0  0  0  0  0
  -16.7313  -16.6363   36.8709 H   0  0  0  0  0  0  0  0  0  0  0  0
  -13.7518  -19.3091   35.3236 H   0  0  0  0  0  0  0  0  0  0  0  0
  -16.2312  -20.5359   32.7993 H   0  0  0  0  0  0  0  0  0  0  0  0
  -11.3865  -24.0955   30.5095 H   0  0  0  0  0  0  0  0  0  0  0  0
  -10.9317  -23.0493   33.0156 H   0  0  0  0  0  0  0  0  0  0  0  0
  -12.2450  -21.1046   34.3591 H   0  0  0  0  0  0  0  0  0  0  0  0
  -16.3700  -18.5887   37.4990 H   0  0  0  0  0  0  0  0  0  0  0  0
  -14.7280  -19.1603   37.4181 H   0  0  0  0  0  0  0  0  0  0  0  0
  -15.8077  -16.7071   39.2621 H   0  0  0  0  0  0  0  0  0  0  0  0
  -14.8289  -18.1786   39.5215 H   0  0  0  0  0  0  0  0  0  0  0  0
  1  2  2  0
  2  3  1  0
  3  4  1  0
  4  5  1  0
  5  6  1  0
  6  7  1  0
  7  8  1  0
  8  9  2  0
  8 10  1  0
 10 11  1  0
 11 12  1  0
 12 13  2  0
 13 14  1  0
 14 15  2  0
 15 16  1  0
 16 17  2  0
 17 18  1  0
 18 19  1  0
  7 20  1  0
 20 21  1  0
 21  3  1  0
 19 11  2  0
 18 14  1  0
  2 22  1  0
  4 23  1  0
  4 24  1  0
  5 25  1  0
  5 26  1  0
  6 27  1  0
  6 28  1  0
 10 29  1  0
 12 30  1  0
 16 31  1  0
 17 32  1  0
 19 33  1  0
 20 34  1  0
 20 35  1  0
 21 36  1  0
 21 37  1  0
M  END
>  <Energy>  (813) 
813.00689636290133

>  <compound_id>  (813) 
76653

>  <target_id>  (813) 
1

>  <reference_id>  (813) 
107

>  <inspiration_ids>  (813) 
[107, 7]

>  <energy_score>  (813) 
799.6081944049961

>  <distance_score>  (813) 
11.075920928763308

>  <path>  (813) 
/opt/xchem-fragalysis-2/maxwin/BulkDock/SCRATCH/511022/C76653-P107/C76653-P107.minimised.mol

>  <scratch_subdir>  (813) 
/opt/xchem-fragalysis-2/maxwin/BulkDock/SCRATCH/511022/C76653-P107

>  <fragmenstein_runtime>  (813) 
31.512628078460693

>  <fragmenstein_outcome>  (813) 
too moved

>  <fragmenstein_mode>  (813) 
expansion

>  <fragmenstein_error>  (813) 


$$$$
C76653-P7
     RDKit          3D

 37 39  0  0  0  0  0  0  0  0999 V2000
  -12.2766   -9.9976   35.4365 O   0  0  0  0  0  0  0  0  0  0  0  0
  -11.6667   -9.2994   34.7091 C   0  0  0  0  0  0  0  0  0  0  0  0
  -11.3408   -7.3834   34.6720 N   0  0  0  0  0  0  0  0  0  0  0  0
  -12.0066   -5.6948   35.7392 C   0  0  0  0  0  0  0  0  0  0  0  0
  -13.7994   -5.3402   36.4860 C   0  0  0  0  0  0  0  0  0  0  0  0
  -14.6228   -6.6574   37.0460 C   0  0  0  0  0  0  0  0  0  0  0  0
  -14.9725   -7.9558   36.2853 N   0  0  0  0  0  0  0  0  0  0  0  0
  -15.5242   -9.2878   36.8068 C   0  0  0  0  0  0  0  0  0  0  0  0
  -15.7178   -9.6447   37.9132 O   0  0  0  0  0  0  0  0  0  0  0  0
  -15.6472  -10.0355   35.5147 N   0  0  0  0  0  0  0  0  0  0  0  0
  -15.9296  -11.3730   35.2643 C   0  0  0  0  0  0  0  0  0  0  0  0
  -15.9707  -11.9159   33.8532 C   0  0  0  0  0  0  0  0  0  0  0  0
  -16.1245  -13.1546   33.4849 N   0  0  0  0  0  0  0  0  0  0  0  0
  -16.1656  -14.0933   34.4713 C   0  0  0  0  0  0  0  0  0  0  0  0
  -16.1703  -15.4138   34.3907 N   0  0  0  0  0  0  0  0  0  0  0  0
  -16.2541  -15.8795   35.6722 C   0  0  0  0  0  0  0  0  0  0  0  0
  -16.2977  -14.8330   36.5607 C   0  0  0  0  0  0  0  0  0  0  0  0
  -16.1874  -13.6911   35.7989 N   0  0  0  0  0  0  0  0  0  0  0  0
  -16.0663  -12.3509   36.1835 C   0  0  0  0  0  0  0  0  0  0  0  0
  -13.3078   -8.0547   36.1342 C   0  0  0  0  0  0  0  0  0  0  0  0
  -11.7118   -6.6365   35.5941 C   0  0  0  0  0  0  0  0  0  0  0  0
  -11.1165   -9.5441   33.7786 H   0  0  0  0  0  0  0  0  0  0  0  0
  -11.7855   -4.7584   35.0778 H   0  0  0  0  0  0  0  0  0  0  0  0
  -11.2714   -4.9807   36.4416 H   0  0  0  0  0  0  0  0  0  0  0  0
  -14.5198   -4.8228   35.8425 H   0  0  0  0  0  0  0  0  0  0  0  0
  -13.6477   -4.6071   37.2945 H   0  0  0  0  0  0  0  0  0  0  0  0
  -14.3440   -6.9238   38.0796 H   0  0  0  0  0  0  0  0  0  0  0  0
  -15.6318   -6.2494   37.2171 H   0  0  0  0  0  0  0  0  0  0  0  0
  -15.4839   -9.3991   34.7445 H   0  0  0  0  0  0  0  0  0  0  0  0
  -15.8855  -11.1483   33.0675 H   0  0  0  0  0  0  0  0  0  0  0  0
  -16.2929  -16.9393   35.8885 H   0  0  0  0  0  0  0  0  0  0  0  0
  -16.3759  -14.7968   37.6377 H   0  0  0  0  0  0  0  0  0  0  0  0
  -16.0376  -12.1518   37.2480 H   0  0  0  0  0  0  0  0  0  0  0  0
  -13.1582   -8.6013   37.1123 H   0  0  0  0  0  0  0  0  0  0  0  0
  -13.5363   -8.7336   35.3143 H   0  0  0  0  0  0  0  0  0  0  0  0
  -10.9095   -6.3137   34.6558 H   0  0  0  0  0  0  0  0  0  0  0  0
  -10.6106   -6.4029   36.1642 H   0  0  0  0  0  0  0  0  0  0  0  0
  1  2  2  0
  2  3  1  0
  3  4  1  0
  4  5  1  0
  5  6  1  0
  6  7  1  0
  7  8  1  0
  8  9  2  0
  8 10  1  0
 10 11  1  0
 11 12  1  0
 12 13  2  0
 13 14  1  0
 14 15  2  0
 15 16  1  0
 16 17  2  0
 17 18  1  0
 18 19  1  0
  7 20  1  0
 20 21  1  0
 21  3  1  0
 19 11  2  0
 18 14  1  0
  2 22  1  0
  4 23  1  0
  4 24  1  0
  5 25  1  0
  5 26  1  0
  6 27  1  0
  6 28  1  0
 10 29  1  0
 12 30  1  0
 16 31  1  0
 17 32  1  0
 19 33  1  0
 20 34  1  0
 20 35  1  0
 21 36  1  0
 21 37  1  0
M  END
>  <Energy>  (814) 
1186.3906769649593

>  <compound_id>  (814) 
76653

>  <target_id>  (814) 
1

>  <reference_id>  (814) 
7

>  <inspiration_ids>  (814) 
[107, 7]

>  <energy_score>  (814) 
1172.991975007038

>  <distance_score>  (814) 
10.342291351133744

>  <path>  (814) 
/opt/xchem-fragalysis-2/maxwin/BulkDock/SCRATCH/511022/C76653-P7/C76653-P7.minimised.mol

>  <scratch_subdir>  (814) 
/opt/xchem-fragalysis-2/maxwin/BulkDock/SCRATCH/511022/C76653-P7

>  <fragmenstein_runtime>  (814) 
16.692074060440063

>  <fragmenstein_outcome>  (814) 
too moved

>  <fragmenstein_mode>  (814) 
expansion

>  <fragmenstein_error>  (814) 


$$$$
C45279-P107
     RDKit          3D

 25 27  0  0  0  0  0  0  0  0999 V2000
  -14.5725  -14.4103   39.0256 O   0  0  0  0  0  0  0  0  0  0  0  0
  -15.1950  -14.1047   38.0463 C   0  0  0  0  0  0  0  0  0  0  0  0
  -15.5927  -14.8888   36.8994 N   0  0  0  0  0  0  0  0  0  0  0  0
  -15.2992  -16.1868   36.5468 C   0  0  0  0  0  0  0  0  0  0  0  0
  -16.2921  -17.0480   35.8165 C   0  0  0  0  0  0  0  0  0  0  0  0
  -16.0658  -18.1653   35.1870 N   0  0  0  0  0  0  0  0  0  0  0  0
  -14.7676  -18.5739   35.1571 C   0  0  0  0  0  0  0  0  0  0  0  0
  -14.2150  -19.5186   34.4274 N   0  0  0  0  0  0  0  0  0  0  0  0
  -12.8826  -19.5135   34.7570 C   0  0  0  0  0  0  0  0  0  0  0  0
  -12.6105  -18.5393   35.6858 C   0  0  0  0  0  0  0  0  0  0  0  0
  -13.8052  -17.9131   35.9109 N   0  0  0  0  0  0  0  0  0  0  0  0
  -14.0815  -16.7518   36.6280 C   0  0  0  0  0  0  0  0  0  0  0  0
  -15.5718  -12.6570   37.8734 C   0  0  0  0  0  0  0  0  0  0  0  0
  -15.1163  -11.5538   38.6688 C   0  0  0  0  0  0  0  0  0  0  0  0
  -15.6111  -10.4209   38.0711 C   0  0  0  0  0  0  0  0  0  0  0  0
  -16.3102  -10.8638   36.9915 N   0  0  0  0  0  0  0  0  0  0  0  0
  -16.3360  -12.2059   36.8552 N   0  0  0  0  0  0  0  0  0  0  0  0
  -16.1877  -14.3182   36.2968 H   0  0  0  0  0  0  0  0  0  0  0  0
  -17.3297  -16.6721   35.8399 H   0  0  0  0  0  0  0  0  0  0  0  0
  -12.1910  -20.2099   34.3016 H   0  0  0  0  0  0  0  0  0  0  0  0
  -11.6887  -18.2223   36.1489 H   0  0  0  0  0  0  0  0  0  0  0  0
  -13.2379  -16.2715   37.0937 H   0  0  0  0  0  0  0  0  0  0  0  0
  -14.4718  -11.6107   39.5350 H   0  0  0  0  0  0  0  0  0  0  0  0
  -15.5174   -9.3718   38.3086 H   0  0  0  0  0  0  0  0  0  0  0  0
  -16.8143  -10.3114   36.3081 H   0  0  0  0  0  0  0  0  0  0  0  0
  1  2  2  0
  2  3  1  0
  3  4  1  0
  4  5  1  0
  5  6  2  0
  6  7  1  0
  7  8  2  0
  8  9  1  0
  9 10  2  0
 10 11  1  0
 11 12  1  0
  2 13  1  0
 13 14  1  0
 14 15  2  0
 15 16  1  0
 16 17  1  0
 12  4  2  0
 17 13  2  0
 11  7  1  0
  3 18  1  0
  5 19  1  0
  9 20  1  0
 10 21  1  0
 12 22  1  0
 14 23  1  0
 15 24  1  0
 16 25  1  0
M  END
>  <Energy>  (815) 
72.837150599096304

>  <compound_id>  (815) 
45279

>  <target_id>  (815) 
1

>  <reference_id>  (815) 
107

>  <inspiration_ids>  (815) 
[107, 7]

>  <energy_score>  (815) 
-22.631728462912747

>  <distance_score>  (815) 
10.136849768927071

>  <path>  (815) 
/opt/xchem-fragalysis-2/maxwin/BulkDock/SCRATCH/511022/C45279-P107/C45279-P107.minimised.mol

>  <scratch_subdir>  (815) 
/opt/xchem-fragalysis-2/maxwin/BulkDock/SCRATCH/511022/C45279-P107

>  <fragmenstein_runtime>  (815) 
9.138114929199219

>  <fragmenstein_outcome>  (815) 
too moved

>  <fragmenstein_mode>  (815) 
expansion

>  <fragmenstein_error>  (815) 


$$$$
C45279-P7
     RDKit          3D

 25 27  0  0  0  0  0  0  0  0999 V2000
  -12.8394  -16.6387   34.8136 O   0  0  0  0  0  0  0  0  0  0  0  0
  -12.9164  -15.6784   34.0968 C   0  0  0  0  0  0  0  0  0  0  0  0
  -11.9939  -15.1651   33.0861 N   0  0  0  0  0  0  0  0  0  0  0  0
  -10.6595  -15.7467   32.5300 C   0  0  0  0  0  0  0  0  0  0  0  0
  -11.4247  -16.5066   30.7218 C   0  0  0  0  0  0  0  0  0  0  0  0
  -10.8895  -18.1190   29.9909 N   0  0  0  0  0  0  0  0  0  0  0  0
  -10.4722  -19.5351   31.4754 C   0  0  0  0  0  0  0  0  0  0  0  0
  -11.0203  -20.7570   31.7096 N   0  0  0  0  0  0  0  0  0  0  0  0
  -11.7136  -20.6570   32.9302 C   0  0  0  0  0  0  0  0  0  0  0  0
  -11.4654  -19.4862   33.6728 C   0  0  0  0  0  0  0  0  0  0  0  0
  -10.2479  -18.7827   33.1529 N   0  0  0  0  0  0  0  0  0  0  0  0
   -9.9274  -16.9720   33.5062 C   0  0  0  0  0  0  0  0  0  0  0  0
  -14.0832  -14.7224   34.2609 C   0  0  0  0  0  0  0  0  0  0  0  0
  -15.4144  -14.9266   34.7132 C   0  0  0  0  0  0  0  0  0  0  0  0
  -15.9833  -13.6723   34.8122 C   0  0  0  0  0  0  0  0  0  0  0  0
  -15.0134  -12.7940   34.4473 N   0  0  0  0  0  0  0  0  0  0  0  0
  -13.8372  -13.3966   34.2385 N   0  0  0  0  0  0  0  0  0  0  0  0
  -12.4213  -14.3860   32.6177 H   0  0  0  0  0  0  0  0  0  0  0  0
  -12.3364  -15.9858   30.3230 H   0  0  0  0  0  0  0  0  0  0  0  0
  -12.4150  -21.4380   33.2076 H   0  0  0  0  0  0  0  0  0  0  0  0
  -11.9223  -19.0651   34.5575 H   0  0  0  0  0  0  0  0  0  0  0  0
  -10.0442  -16.8292   34.5780 H   0  0  0  0  0  0  0  0  0  0  0  0
  -15.8889  -15.8722   34.9343 H   0  0  0  0  0  0  0  0  0  0  0  0
  -16.9762  -13.3442   35.0845 H   0  0  0  0  0  0  0  0  0  0  0  0
  -15.0679  -11.7838   34.3499 H   0  0  0  0  0  0  0  0  0  0  0  0
  1  2  2  0
  2  3  1  0
  3  4  1  0
  4  5  1  0
  5  6  2  0
  6  7  1  0
  7  8  2  0
  8  9  1  0
  9 10  2  0
 10 11  1  0
 11 12  1  0
  2 13  1  0
 13 14  1  0
 14 15  2  0
 15 16  1  0
 16 17  1  0
 12  4  2  0
 17 13  2  0
 11  7  1  0
  3 18  1  0
  5 19  1  0
  9 20  1  0
 10 21  1  0
 12 22  1  0
 14 23  1  0
 15 24  1  0
 16 25  1  0
M  END
>  <Energy>  (816) 
777.07762903229809

>  <compound_id>  (816) 
45279

>  <target_id>  (816) 
1

>  <reference_id>  (816) 
7

>  <inspiration_ids>  (816) 
[107, 7]

>  <energy_score>  (816) 
681.6087499702771

>  <distance_score>  (816) 
10.129820168599274

>  <path>  (816) 
/opt/xchem-fragalysis-2/maxwin/BulkDock/SCRATCH/511022/C45279-P7/C45279-P7.minimised.mol

>  <scratch_subdir>  (816) 
/opt/xchem-fragalysis-2/maxwin/BulkDock/SCRATCH/511022/C45279-P7

>  <fragmenstein_runtime>  (816) 
7.897293329238892

>  <fragmenstein_outcome>  (816) 
too moved

>  <fragmenstein_mode>  (816) 
expansion

>  <fragmenstein_error>  (816) 


$$$$
C45280-P107
     RDKit          3D

 32 35  0  0  0  0  0  0  0  0999 V2000
  -10.6419  -15.7128   33.7743 O   0  0  0  0  0  0  0  0  0  0  0  0
  -11.7413  -15.2568   33.6968 C   0  0  0  0  0  0  0  0  0  0  0  0
  -12.9993  -15.7689   34.1523 N   0  0  0  0  0  0  0  0  0  0  0  0
  -13.3256  -16.9775   34.7316 C   0  0  0  0  0  0  0  0  0  0  0  0
  -12.2958  -18.0924   34.8053 C   0  0  0  0  0  0  0  0  0  0  0  0
  -12.5340  -19.3648   34.6881 N   0  0  0  0  0  0  0  0  0  0  0  0
  -13.8408  -19.6833   34.5268 C   0  0  0  0  0  0  0  0  0  0  0  0
  -14.3908  -20.7505   33.9893 N   0  0  0  0  0  0  0  0  0  0  0  0
  -15.7397  -20.6127   34.1692 C   0  0  0  0  0  0  0  0  0  0  0  0
  -16.0293  -19.4107   34.7752 C   0  0  0  0  0  0  0  0  0  0  0  0
  -14.8216  -18.7725   34.9005 N   0  0  0  0  0  0  0  0  0  0  0  0
  -14.5474  -17.4105   35.0718 C   0  0  0  0  0  0  0  0  0  0  0  0
  -11.7062  -13.7972   33.0724 C   0  0  0  0  0  0  0  0  0  0  0  0
   -9.8667  -13.0630   32.8279 C   0  0  0  0  0  0  0  0  0  0  0  0
   -9.9626  -11.0539   32.2889 C   0  0  0  0  0  0  0  0  0  0  0  0
  -11.3362  -10.1102   33.4999 C   0  0  0  0  0  0  0  0  0  0  0  0
  -11.6462   -8.2701   34.7930 C   0  0  0  0  0  0  0  0  0  0  0  0
  -11.0087   -6.6139   34.4338 C   0  0  0  0  0  0  0  0  0  0  0  0
  -11.8062   -5.5882   34.9637 C   0  0  0  0  0  0  0  0  0  0  0  0
  -12.9295   -6.2218   35.2457 N   0  0  0  0  0  0  0  0  0  0  0  0
  -12.7415   -7.6017   35.4398 N   0  0  0  0  0  0  0  0  0  0  0  0
  -12.8847  -11.8977   34.2065 S   0  0  0  0  0  0  0  0  0  0  0  0
  -13.7433  -15.1473   33.8387 H   0  0  0  0  0  0  0  0  0  0  0  0
  -11.2577  -17.7678   34.9824 H   0  0  0  0  0  0  0  0  0  0  0  0
  -16.4255  -21.3891   33.8506 H   0  0  0  0  0  0  0  0  0  0  0  0
  -16.9655  -18.9452   35.0454 H   0  0  0  0  0  0  0  0  0  0  0  0
  -15.3938  -16.7615   35.2216 H   0  0  0  0  0  0  0  0  0  0  0  0
   -9.1703  -13.8990   32.6048 H   0  0  0  0  0  0  0  0  0  0  0  0
   -9.0110  -10.6814   31.9911 H   0  0  0  0  0  0  0  0  0  0  0  0
  -10.0746   -6.6703   33.8695 H   0  0  0  0  0  0  0  0  0  0  0  0
  -11.8006   -4.5143   35.0755 H   0  0  0  0  0  0  0  0  0  0  0  0
  -13.8053   -5.8673   35.5802 H   0  0  0  0  0  0  0  0  0  0  0  0
  1  2  2  0
  2  3  1  0
  3  4  1  0
  4  5  1  0
  5  6  2  0
  6  7  1  0
  7  8  2  0
  8  9  1  0
  9 10  2  0
 10 11  1  0
 11 12  1  0
  2 13  1  0
 13 14  2  0
 14 15  1  0
 15 16  2  0
 16 17  1  0
 17 18  1  0
 18 19  2  0
 19 20  1  0
 20 21  1  0
 16 22  1  0
 12  4  2  0
 22 13  1  0
 11  7  1  0
 21 17  2  0
  3 23  1  0
  5 24  1  0
  9 25  1  0
 10 26  1  0
 12 27  1  0
 14 28  1  0
 15 29  1  0
 18 30  1  0
 19 31  1  0
 20 32  1  0
M  END
>  <Energy>  (817) 
950.92051548616496

>  <compound_id>  (817) 
45280

>  <target_id>  (817) 
1

>  <reference_id>  (817) 
107

>  <inspiration_ids>  (817) 
[107, 7]

>  <energy_score>  (817) 
849.0245834363247

>  <distance_score>  (817) 
7.520146842376965

>  <path>  (817) 
/opt/xchem-fragalysis-2/maxwin/BulkDock/SCRATCH/511022/C45280-P107/C45280-P107.minimised.mol

>  <scratch_subdir>  (817) 
/opt/xchem-fragalysis-2/maxwin/BulkDock/SCRATCH/511022/C45280-P107

>  <fragmenstein_runtime>  (817) 
7.896626234054565

>  <fragmenstein_outcome>  (817) 
too moved

>  <fragmenstein_mode>  (817) 
expansion

>  <fragmenstein_error>  (817) 


$$$$
C45280-P7
     RDKit          3D

 32 35  0  0  0  0  0  0  0  0999 V2000
  -11.1153  -14.7334   30.2780 O   0  0  0  0  0  0  0  0  0  0  0  0
  -11.8078  -15.2130   31.1192 C   0  0  0  0  0  0  0  0  0  0  0  0
  -12.3180  -16.9796   30.6661 N   0  0  0  0  0  0  0  0  0  0  0  0
  -11.7980  -18.2719   29.1833 C   0  0  0  0  0  0  0  0  0  0  0  0
  -12.6205  -20.0031   29.0528 C   0  0  0  0  0  0  0  0  0  0  0  0
  -12.7930  -21.2290   29.5877 N   0  0  0  0  0  0  0  0  0  0  0  0
  -12.1502  -21.5728   30.6690 C   0  0  0  0  0  0  0  0  0  0  0  0
  -12.5636  -21.9891   31.8104 N   0  0  0  0  0  0  0  0  0  0  0  0
  -11.6938  -21.5494   32.6943 C   0  0  0  0  0  0  0  0  0  0  0  0
  -10.7628  -20.8047   32.0209 C   0  0  0  0  0  0  0  0  0  0  0  0
  -10.9899  -20.9497   30.6714 N   0  0  0  0  0  0  0  0  0  0  0  0
  -10.9948  -20.0235   29.3330 C   0  0  0  0  0  0  0  0  0  0  0  0
  -11.9668  -13.9828   32.8471 C   0  0  0  0  0  0  0  0  0  0  0  0
  -10.0723  -13.2905   32.8935 C   0  0  0  0  0  0  0  0  0  0  0  0
  -10.0738  -11.2995   32.2621 C   0  0  0  0  0  0  0  0  0  0  0  0
  -11.4520  -10.2493   33.3817 C   0  0  0  0  0  0  0  0  0  0  0  0
  -10.5829   -8.3698   33.2248 C   0  0  0  0  0  0  0  0  0  0  0  0
  -10.4510   -6.9058   34.1033 C   0  0  0  0  0  0  0  0  0  0  0  0
   -9.0099   -6.5952   34.2101 C   0  0  0  0  0  0  0  0  0  0  0  0
   -8.6646   -7.0806   33.0867 N   0  0  0  0  0  0  0  0  0  0  0  0
   -9.3380   -8.1575   33.0602 N   0  0  0  0  0  0  0  0  0  0  0  0
  -13.0039  -12.0079   34.1180 S   0  0  0  0  0  0  0  0  0  0  0  0
  -12.8025  -17.3389   31.4270 H   0  0  0  0  0  0  0  0  0  0  0  0
  -12.4735  -20.4340   28.0497 H   0  0  0  0  0  0  0  0  0  0  0  0
  -11.8931  -21.6988   33.7462 H   0  0  0  0  0  0  0  0  0  0  0  0
  -10.0396  -20.1044   32.3849 H   0  0  0  0  0  0  0  0  0  0  0  0
  -10.7561  -20.9420   28.6657 H   0  0  0  0  0  0  0  0  0  0  0  0
   -9.3463  -14.0576   32.5313 H   0  0  0  0  0  0  0  0  0  0  0  0
   -9.1299  -10.8504   32.0065 H   0  0  0  0  0  0  0  0  0  0  0  0
  -11.1132   -6.5696   34.8915 H   0  0  0  0  0  0  0  0  0  0  0  0
   -8.3411   -6.0862   34.9131 H   0  0  0  0  0  0  0  0  0  0  0  0
   -7.7548   -6.9902   32.6545 H   0  0  0  0  0  0  0  0  0  0  0  0
  1  2  2  0
  2  3  1  0
  3  4  1  0
  4  5  1  0
  5  6  2  0
  6  7  1  0
  7  8  2  0
  8  9  1  0
  9 10  2  0
 10 11  1  0
 11 12  1  0
  2 13  1  0
 13 14  2  0
 14 15  1  0
 15 16  2  0
 16 17  1  0
 17 18  1  0
 18 19  2  0
 19 20  1  0
 20 21  1  0
 16 22  1  0
 12  4  2  0
 22 13  1  0
 11  7  1  0
 21 17  2  0
  3 23  1  0
  5 24  1  0
  9 25  1  0
 10 26  1  0
 12 27  1  0
 14 28  1  0
 15 29  1  0
 18 30  1  0
 19 31  1  0
 20 32  1  0
M  END
>  <Energy>  (818) 
1904.4268078009213

>  <compound_id>  (818) 
45280

>  <target_id>  (818) 
1

>  <reference_id>  (818) 
7

>  <inspiration_ids>  (818) 
[107, 7]

>  <energy_score>  (818) 
1802.5308757510857

>  <distance_score>  (818) 
5.557933043074051

>  <path>  (818) 
/opt/xchem-fragalysis-2/maxwin/BulkDock/SCRATCH/511022/C45280-P7/C45280-P7.minimised.mol

>  <scratch_subdir>  (818) 
/opt/xchem-fragalysis-2/maxwin/BulkDock/SCRATCH/511022/C45280-P7

>  <fragmenstein_runtime>  (818) 
8.86168885231018

>  <fragmenstein_outcome>  (818) 
too moved

>  <fragmenstein_mode>  (818) 
expansion

>  <fragmenstein_error>  (818) 


$$$$
C45281-P107
     RDKit          3D

 35 38  0  0  0  0  0  0  0  0999 V2000
  -14.7403  -14.5483   38.7104 O   0  0  0  0  0  0  0  0  0  0  0  0
  -15.6435  -14.4440   37.9135 C   0  0  0  0  0  0  0  0  0  0  0  0
  -16.0772  -15.3428   36.8438 N   0  0  0  0  0  0  0  0  0  0  0  0
  -15.5347  -16.5152   36.3753 C   0  0  0  0  0  0  0  0  0  0  0  0
  -16.3886  -17.4741   35.5841 C   0  0  0  0  0  0  0  0  0  0  0  0
  -16.0043  -18.5227   34.9200 N   0  0  0  0  0  0  0  0  0  0  0  0
  -14.6743  -18.7907   34.9693 C   0  0  0  0  0  0  0  0  0  0  0  0
  -14.0065  -19.7166   34.3210 N   0  0  0  0  0  0  0  0  0  0  0  0
  -12.6996  -19.5626   34.6990 C   0  0  0  0  0  0  0  0  0  0  0  0
  -12.5604  -18.5289   35.5923 C   0  0  0  0  0  0  0  0  0  0  0  0
  -13.8193  -18.0200   35.7516 N   0  0  0  0  0  0  0  0  0  0  0  0
  -14.2528  -16.9054   36.4652 C   0  0  0  0  0  0  0  0  0  0  0  0
  -16.5453  -13.0827   38.0078 C   0  0  0  0  0  0  0  0  0  0  0  0
  -15.5811  -11.7962   37.9840 C   0  0  0  0  0  0  0  0  0  0  0  0
  -15.0449  -11.1137   39.1040 C   0  0  0  0  0  0  0  0  0  0  0  0
  -14.1117  -10.2468   38.5759 C   0  0  0  0  0  0  0  0  0  0  0  0
  -14.0995  -10.5208   37.2396 N   0  0  0  0  0  0  0  0  0  0  0  0
  -15.1585  -11.2489   36.8406 N   0  0  0  0  0  0  0  0  0  0  0  0
  -17.8114  -12.8391   37.1165 C   0  0  0  0  0  0  0  0  0  0  0  0
  -18.6403  -13.5292   38.2144 C   0  0  0  0  0  0  0  0  0  0  0  0
  -17.5544  -13.0803   39.2131 C   0  0  0  0  0  0  0  0  0  0  0  0
  -16.9253  -14.9748   36.4250 H   0  0  0  0  0  0  0  0  0  0  0  0
  -17.4670  -17.2544   35.6017 H   0  0  0  0  0  0  0  0  0  0  0  0
  -11.9317  -20.2021   34.2910 H   0  0  0  0  0  0  0  0  0  0  0  0
  -11.6941  -18.1063   36.0777 H   0  0  0  0  0  0  0  0  0  0  0  0
  -13.4992  -16.3349   36.9883 H   0  0  0  0  0  0  0  0  0  0  0  0
  -15.2331  -11.3002   40.1513 H   0  0  0  0  0  0  0  0  0  0  0  0
  -13.3848   -9.5951   39.0370 H   0  0  0  0  0  0  0  0  0  0  0  0
  -13.4158  -10.2642   36.5313 H   0  0  0  0  0  0  0  0  0  0  0  0
  -17.8415  -13.2867   36.1231 H   0  0  0  0  0  0  0  0  0  0  0  0
  -18.0811  -11.7808   36.9917 H   0  0  0  0  0  0  0  0  0  0  0  0
  -18.7179  -14.6162   38.0995 H   0  0  0  0  0  0  0  0  0  0  0  0
  -19.6394  -13.1200   38.3830 H   0  0  0  0  0  0  0  0  0  0  0  0
  -17.3473  -13.7911   40.0182 H   0  0  0  0  0  0  0  0  0  0  0  0
  -17.7549  -12.0981   39.6577 H   0  0  0  0  0  0  0  0  0  0  0  0
  1  2  2  0
  2  3  1  0
  3  4  1  0
  4  5  1  0
  5  6  2  0
  6  7  1  0
  7  8  2  0
  8  9  1  0
  9 10  2  0
 10 11  1  0
 11 12  1  0
  2 13  1  0
 13 14  1  0
 14 15  1  0
 15 16  2  0
 16 17  1  0
 17 18  1  0
 13 19  1  0
 19 20  1  0
 20 21  1  0
 12  4  2  0
 21 13  1  0
 11  7  1  0
 18 14  2  0
  3 22  1  0
  5 23  1  0
  9 24  1  0
 10 25  1  0
 12 26  1  0
 15 27  1  0
 16 28  1  0
 17 29  1  0
 19 30  1  0
 19 31  1  0
 20 32  1  0
 20 33  1  0
 21 34  1  0
 21 35  1  0
M  END
>  <Energy>  (819) 
67.830371672672712

>  <compound_id>  (819) 
45281

>  <target_id>  (819) 
1

>  <reference_id>  (819) 
107

>  <inspiration_ids>  (819) 
[107, 7]

>  <energy_score>  (819) 
-43.883879635693376

>  <distance_score>  (819) 
9.715182051049796

>  <path>  (819) 
/opt/xchem-fragalysis-2/maxwin/BulkDock/SCRATCH/511022/C45281-P107/C45281-P107.minimised.mol

>  <scratch_subdir>  (819) 
/opt/xchem-fragalysis-2/maxwin/BulkDock/SCRATCH/511022/C45281-P107

>  <fragmenstein_runtime>  (819) 
12.413419961929321

>  <fragmenstein_outcome>  (819) 
too moved

>  <fragmenstein_mode>  (819) 
expansion

>  <fragmenstein_error>  (819) 


$$$$
C45281-P7
     RDKit          3D

 35 38  0  0  0  0  0  0  0  0999 V2000
  -17.3380  -13.7049   36.2361 O   0  0  0  0  0  0  0  0  0  0  0  0
  -16.6928  -13.9206   37.2307 C   0  0  0  0  0  0  0  0  0  0  0  0
  -15.9155  -15.0984   37.6263 N   0  0  0  0  0  0  0  0  0  0  0  0
  -15.6226  -16.2588   36.9423 C   0  0  0  0  0  0  0  0  0  0  0  0
  -16.5192  -16.8188   35.8687 C   0  0  0  0  0  0  0  0  0  0  0  0
  -16.2657  -17.8213   35.0757 N   0  0  0  0  0  0  0  0  0  0  0  0
  -15.0360  -18.3809   35.1966 C   0  0  0  0  0  0  0  0  0  0  0  0
  -14.4722  -19.2939   34.4398 N   0  0  0  0  0  0  0  0  0  0  0  0
  -13.1976  -19.4437   34.9248 C   0  0  0  0  0  0  0  0  0  0  0  0
  -12.9813  -18.6132   35.9964 C   0  0  0  0  0  0  0  0  0  0  0  0
  -14.1656  -17.9618   36.1904 N   0  0  0  0  0  0  0  0  0  0  0  0
  -14.4880  -16.9645   37.1034 C   0  0  0  0  0  0  0  0  0  0  0  0
  -16.6771  -12.7666   38.3526 C   0  0  0  0  0  0  0  0  0  0  0  0
  -15.7273  -11.5164   37.9395 C   0  0  0  0  0  0  0  0  0  0  0  0
  -16.0207  -10.5243   36.9734 C   0  0  0  0  0  0  0  0  0  0  0  0
  -14.9633   -9.6422   37.0323 C   0  0  0  0  0  0  0  0  0  0  0  0
  -14.1148  -10.1382   37.9789 N   0  0  0  0  0  0  0  0  0  0  0  0
  -14.5734  -11.2608   38.5618 N   0  0  0  0  0  0  0  0  0  0  0  0
  -18.1143  -12.2679   38.7735 C   0  0  0  0  0  0  0  0  0  0  0  0
  -17.6046  -12.1508   40.2191 C   0  0  0  0  0  0  0  0  0  0  0  0
  -16.5322  -13.1924   39.8596 C   0  0  0  0  0  0  0  0  0  0  0  0
  -15.4312  -14.8993   38.4960 H   0  0  0  0  0  0  0  0  0  0  0  0
  -17.5076  -16.3427   35.8020 H   0  0  0  0  0  0  0  0  0  0  0  0
  -12.5090  -20.1456   34.4736 H   0  0  0  0  0  0  0  0  0  0  0  0
  -12.1152  -18.4402   36.6156 H   0  0  0  0  0  0  0  0  0  0  0  0
  -13.7253  -16.7149   37.8296 H   0  0  0  0  0  0  0  0  0  0  0  0
  -16.8864  -10.4642   36.3289 H   0  0  0  0  0  0  0  0  0  0  0  0
  -14.7424   -8.7379   36.4871 H   0  0  0  0  0  0  0  0  0  0  0  0
  -13.2161   -9.7781   38.2858 H   0  0  0  0  0  0  0  0  0  0  0  0
  -18.8987  -13.0251   38.6484 H   0  0  0  0  0  0  0  0  0  0  0  0
  -18.4724  -11.3344   38.3302 H   0  0  0  0  0  0  0  0  0  0  0  0
  -18.3127  -12.4482   40.9968 H   0  0  0  0  0  0  0  0  0  0  0  0
  -17.2003  -11.1637   40.4699 H   0  0  0  0  0  0  0  0  0  0  0  0
  -15.5578  -13.0438   40.3328 H   0  0  0  0  0  0  0  0  0  0  0  0
  -16.8579  -14.2181   40.0743 H   0  0  0  0  0  0  0  0  0  0  0  0
  1  2  2  0
  2  3  1  0
  3  4  1  0
  4  5  1  0
  5  6  2  0
  6  7  1  0
  7  8  2  0
  8  9  1  0
  9 10  2  0
 10 11  1  0
 11 12  1  0
  2 13  1  0
 13 14  1  0
 14 15  1  0
 15 16  2  0
 16 17  1  0
 17 18  1  0
 13 19  1  0
 19 20  1  0
 20 21  1  0
 12  4  2  0
 21 13  1  0
 11  7  1  0
 18 14  2  0
  3 22  1  0
  5 23  1  0
  9 24  1  0
 10 25  1  0
 12 26  1  0
 15 27  1  0
 16 28  1  0
 17 29  1  0
 19 30  1  0
 19 31  1  0
 20 32  1  0
 20 33  1  0
 21 34  1  0
 21 35  1  0
M  END
>  <Energy>  (820) 
62.079281970982976

>  <compound_id>  (820) 
45281

>  <target_id>  (820) 
1

>  <reference_id>  (820) 
7

>  <inspiration_ids>  (820) 
[107, 7]

>  <energy_score>  (820) 
-49.63496933738571

>  <distance_score>  (820) 
9.858328321864901

>  <path>  (820) 
/opt/xchem-fragalysis-2/maxwin/BulkDock/SCRATCH/511022/C45281-P7/C45281-P7.minimised.mol

>  <scratch_subdir>  (820) 
/opt/xchem-fragalysis-2/maxwin/BulkDock/SCRATCH/511022/C45281-P7

>  <fragmenstein_runtime>  (820) 
11.612147331237793

>  <fragmenstein_outcome>  (820) 
too moved

>  <fragmenstein_mode>  (820) 
expansion

>  <fragmenstein_error>  (820) 


$$$$
C45282-P107
     RDKit          3D

 40 43  0  0  0  0  0  0  0  0999 V2000
  -14.2160  -10.9731   35.9179 O   0  0  0  0  0  0  0  0  0  0  0  0
  -13.8340  -11.8185   35.1592 C   0  0  0  0  0  0  0  0  0  0  0  0
  -14.1420  -13.2832   35.0716 N   0  0  0  0  0  0  0  0  0  0  0  0
  -14.8682  -14.0879   35.8794 C   0  0  0  0  0  0  0  0  0  0  0  0
  -15.4520  -13.9186   37.2190 C   0  0  0  0  0  0  0  0  0  0  0  0
  -15.8548  -14.8945   37.9967 N   0  0  0  0  0  0  0  0  0  0  0  0
  -15.6995  -16.1820   37.5430 C   0  0  0  0  0  0  0  0  0  0  0  0
  -15.9771  -17.3330   38.1261 N   0  0  0  0  0  0  0  0  0  0  0  0
  -15.5914  -18.3189   37.2510 C   0  0  0  0  0  0  0  0  0  0  0  0
  -15.0540  -17.7748   36.1120 C   0  0  0  0  0  0  0  0  0  0  0  0
  -15.1489  -16.4199   36.3001 N   0  0  0  0  0  0  0  0  0  0  0  0
  -14.7488  -15.3847   35.4937 C   0  0  0  0  0  0  0  0  0  0  0  0
  -12.8578  -11.7694   34.0409 N   0  0  0  0  0  0  0  0  0  0  0  0
  -13.7420  -11.3994   32.4850 C   0  0  0  0  0  0  0  0  0  0  0  0
  -12.7184  -11.8679   30.5443 C   0  0  0  0  0  0  0  0  0  0  0  0
  -10.9791  -10.6224   30.2337 C   0  0  0  0  0  0  0  0  0  0  0  0
   -9.9519  -10.8770   32.0601 C   0  0  0  0  0  0  0  0  0  0  0  0
  -11.5990  -10.2728   33.4059 C   0  0  0  0  0  0  0  0  0  0  0  0
  -10.9568   -9.2151   34.2350 C   0  0  0  0  0  0  0  0  0  0  0  0
  -11.7657   -7.6672   35.0338 C   0  0  0  0  0  0  0  0  0  0  0  0
  -11.0427   -6.5576   34.5077 C   0  0  0  0  0  0  0  0  0  0  0  0
  -10.0061   -7.1015   33.5690 N   0  0  0  0  0  0  0  0  0  0  0  0
   -9.9565   -8.5496   33.4259 N   0  0  0  0  0  0  0  0  0  0  0  0
  -13.7030  -13.6679   34.2513 H   0  0  0  0  0  0  0  0  0  0  0  0
  -15.5352  -12.8809   37.5815 H   0  0  0  0  0  0  0  0  0  0  0  0
  -15.7213  -19.3636   37.5004 H   0  0  0  0  0  0  0  0  0  0  0  0
  -14.6294  -18.2169   35.2236 H   0  0  0  0  0  0  0  0  0  0  0  0
  -14.2592  -15.6845   34.5736 H   0  0  0  0  0  0  0  0  0  0  0  0
  -14.4925  -12.2480   32.4854 H   0  0  0  0  0  0  0  0  0  0  0  0
  -14.5075  -10.6001   32.7159 H   0  0  0  0  0  0  0  0  0  0  0  0
  -13.1719  -11.4023   29.5889 H   0  0  0  0  0  0  0  0  0  0  0  0
  -13.0737  -12.7673   30.0205 H   0  0  0  0  0  0  0  0  0  0  0  0
  -10.0226  -10.3326   29.7586 H   0  0  0  0  0  0  0  0  0  0  0  0
  -11.3478   -9.7548   29.6970 H   0  0  0  0  0  0  0  0  0  0  0  0
   -9.5444  -11.8497   32.2996 H   0  0  0  0  0  0  0  0  0  0  0  0
   -9.0200  -10.4212   31.9730 H   0  0  0  0  0  0  0  0  0  0  0  0
  -12.1369   -9.6311   32.8061 H   0  0  0  0  0  0  0  0  0  0  0  0
  -12.7467   -7.5811   35.4443 H   0  0  0  0  0  0  0  0  0  0  0  0
  -11.2556   -5.5555   34.8233 H   0  0  0  0  0  0  0  0  0  0  0  0
   -9.1931   -6.6431   33.1870 H   0  0  0  0  0  0  0  0  0  0  0  0
  1  2  2  0
  2  3  1  0
  3  4  1  0
  4  5  1  0
  5  6  2  0
  6  7  1  0
  7  8  2  0
  8  9  1  0
  9 10  2  0
 10 11  1  0
 11 12  1  0
  2 13  1  0
 13 14  1  0
 14 15  1  0
 15 16  1  0
 16 17  1  0
 17 18  1  0
 18 19  1  0
 19 20  1  0
 20 21  2  0
 21 22  1  0
 22 23  1  0
 12  4  2  0
 18 13  1  0
 23 19  2  0
 11  7  1  0
  3 24  1  0
  5 25  1  0
  9 26  1  0
 10 27  1  0
 12 28  1  0
 14 29  1  0
 14 30  1  0
 15 31  1  0
 15 32  1  0
 16 33  1  0
 16 34  1  0
 17 35  1  0
 17 36  1  0
 18 37  1  0
 20 38  1  0
 21 39  1  0
 22 40  1  0
M  END
>  <Energy>  (821) 
809.39877607495293

>  <compound_id>  (821) 
45282

>  <target_id>  (821) 
1

>  <reference_id>  (821) 
107

>  <inspiration_ids>  (821) 
[107, 7]

>  <energy_score>  (821) 
734.4339235638427

>  <distance_score>  (821) 
10.167664196713806

>  <path>  (821) 
/opt/xchem-fragalysis-2/maxwin/BulkDock/SCRATCH/511022/C45282-P107/C45282-P107.minimised.mol

>  <scratch_subdir>  (821) 
/opt/xchem-fragalysis-2/maxwin/BulkDock/SCRATCH/511022/C45282-P107

>  <fragmenstein_runtime>  (821) 
20.104478120803833

>  <fragmenstein_outcome>  (821) 
too moved

>  <fragmenstein_mode>  (821) 
expansion

>  <fragmenstein_error>  (821) 


$$$$
C45282-P7
     RDKit          3D

 40 43  0  0  0  0  0  0  0  0999 V2000
  -15.6104  -11.6245   35.1085 O   0  0  0  0  0  0  0  0  0  0  0  0
  -14.7305  -12.2712   34.6466 C   0  0  0  0  0  0  0  0  0  0  0  0
  -14.5077  -13.7392   34.6207 N   0  0  0  0  0  0  0  0  0  0  0  0
  -15.2950  -14.7737   35.0371 C   0  0  0  0  0  0  0  0  0  0  0  0
  -14.6129  -16.0878   34.5709 C   0  0  0  0  0  0  0  0  0  0  0  0
  -15.0405  -17.3046   34.6301 N   0  0  0  0  0  0  0  0  0  0  0  0
  -16.2523  -17.4347   35.2128 C   0  0  0  0  0  0  0  0  0  0  0  0
  -16.9448  -18.5385   35.3734 N   0  0  0  0  0  0  0  0  0  0  0  0
  -18.0882  -18.1628   36.0140 C   0  0  0  0  0  0  0  0  0  0  0  0
  -18.1119  -16.8038   36.2287 C   0  0  0  0  0  0  0  0  0  0  0  0
  -16.9414  -16.3187   35.7067 N   0  0  0  0  0  0  0  0  0  0  0  0
  -16.4741  -14.9917   35.6138 C   0  0  0  0  0  0  0  0  0  0  0  0
  -13.5925  -11.8932   33.8420 N   0  0  0  0  0  0  0  0  0  0  0  0
  -14.0802  -12.0602   31.9647 C   0  0  0  0  0  0  0  0  0  0  0  0
  -12.8836  -11.6912   30.2383 C   0  0  0  0  0  0  0  0  0  0  0  0
  -11.4400  -10.1162   30.2015 C   0  0  0  0  0  0  0  0  0  0  0  0
  -11.5380   -9.0484   32.1230 C   0  0  0  0  0  0  0  0  0  0  0  0
  -12.9407  -10.1421   33.3216 C   0  0  0  0  0  0  0  0  0  0  0  0
  -11.3339   -9.4206   34.1951 C   0  0  0  0  0  0  0  0  0  0  0  0
  -11.8301   -8.1197   34.9310 C   0  0  0  0  0  0  0  0  0  0  0  0
  -11.0192   -6.7787   34.7177 C   0  0  0  0  0  0  0  0  0  0  0  0
  -10.0164   -7.1200   33.7725 N   0  0  0  0  0  0  0  0  0  0  0  0
  -10.1784   -8.3781   33.3201 N   0  0  0  0  0  0  0  0  0  0  0  0
  -13.6937  -13.9414   34.0681 H   0  0  0  0  0  0  0  0  0  0  0  0
  -13.6192  -15.9542   34.1045 H   0  0  0  0  0  0  0  0  0  0  0  0
  -18.8439  -18.8893   36.2858 H   0  0  0  0  0  0  0  0  0  0  0  0
  -18.8459  -16.1595   36.6906 H   0  0  0  0  0  0  0  0  0  0  0  0
  -17.1194  -14.2015   35.9748 H   0  0  0  0  0  0  0  0  0  0  0  0
  -15.1982  -12.0334   31.9492 H   0  0  0  0  0  0  0  0  0  0  0  0
  -13.9559  -13.0889   31.8111 H   0  0  0  0  0  0  0  0  0  0  0  0
  -12.9427  -12.5810   29.5840 H   0  0  0  0  0  0  0  0  0  0  0  0
  -13.5329  -11.1745   29.4942 H   0  0  0  0  0  0  0  0  0  0  0  0
  -10.3642  -10.2981   30.2597 H   0  0  0  0  0  0  0  0  0  0  0  0
  -11.5344   -9.5875   29.2449 H   0  0  0  0  0  0  0  0  0  0  0  0
  -10.3153   -9.7570   32.6390 H   0  0  0  0  0  0  0  0  0  0  0  0
  -11.1064   -8.0086   31.8463 H   0  0  0  0  0  0  0  0  0  0  0  0
  -13.8108   -9.5666   33.7119 H   0  0  0  0  0  0  0  0  0  0  0  0
  -12.8413   -8.3959   35.4149 H   0  0  0  0  0  0  0  0  0  0  0  0
  -11.0567   -5.8354   35.2633 H   0  0  0  0  0  0  0  0  0  0  0  0
   -9.0969   -6.7257   33.5931 H   0  0  0  0  0  0  0  0  0  0  0  0
  1  2  2  0
  2  3  1  0
  3  4  1  0
  4  5  1  0
  5  6  2  0
  6  7  1  0
  7  8  2  0
  8  9  1  0
  9 10  2  0
 10 11  1  0
 11 12  1  0
  2 13  1  0
 13 14  1  0
 14 15  1  0
 15 16  1  0
 16 17  1  0
 17 18  1  0
 18 19  1  0
 19 20  1  0
 20 21  2  0
 21 22  1  0
 22 23  1  0
 12  4  2  0
 18 13  1  0
 23 19  2  0
 11  7  1  0
  3 24  1  0
  5 25  1  0
  9 26  1  0
 10 27  1  0
 12 28  1  0
 14 29  1  0
 14 30  1  0
 15 31  1  0
 15 32  1  0
 16 33  1  0
 16 34  1  0
 17 35  1  0
 17 36  1  0
 18 37  1  0
 20 38  1  0
 21 39  1  0
 22 40  1  0
M  END
>  <Energy>  (822) 
1000.0002486585904

>  <compound_id>  (822) 
45282

>  <target_id>  (822) 
1

>  <reference_id>  (822) 
7

>  <inspiration_ids>  (822) 
[107, 7]

>  <energy_score>  (822) 
925.0353961474759

>  <distance_score>  (822) 
9.614778024310311

>  <path>  (822) 
/opt/xchem-fragalysis-2/maxwin/BulkDock/SCRATCH/511022/C45282-P7/C45282-P7.minimised.mol

>  <scratch_subdir>  (822) 
/opt/xchem-fragalysis-2/maxwin/BulkDock/SCRATCH/511022/C45282-P7

>  <fragmenstein_runtime>  (822) 
15.167169094085693

>  <fragmenstein_outcome>  (822) 
too moved

>  <fragmenstein_mode>  (822) 
expansion

>  <fragmenstein_error>  (822) 


$$$$
C45283-P107
     RDKit          3D

 35 38  0  0  0  0  0  0  0  0999 V2000
  -13.3610  -14.6614   35.3986 O   0  0  0  0  0  0  0  0  0  0  0  0
  -14.4479  -15.0156   35.7087 C   0  0  0  0  0  0  0  0  0  0  0  0
  -15.1199  -16.4887   35.6646 N   0  0  0  0  0  0  0  0  0  0  0  0
  -14.5883  -17.7788   35.1309 C   0  0  0  0  0  0  0  0  0  0  0  0
  -15.3362  -18.9264   34.8096 C   0  0  0  0  0  0  0  0  0  0  0  0
  -14.5003  -19.8950   34.2315 N   0  0  0  0  0  0  0  0  0  0  0  0
  -14.7794  -21.1146   33.5715 C   0  0  0  0  0  0  0  0  0  0  0  0
  -13.7963  -21.8590   33.0345 C   0  0  0  0  0  0  0  0  0  0  0  0
  -12.4431  -21.2956   33.2509 C   0  0  0  0  0  0  0  0  0  0  0  0
  -12.1646  -20.1771   33.8645 N   0  0  0  0  0  0  0  0  0  0  0  0
  -13.2076  -19.4065   34.3581 C   0  0  0  0  0  0  0  0  0  0  0  0
  -13.2652  -18.1371   34.8093 N   0  0  0  0  0  0  0  0  0  0  0  0
  -15.4029  -13.6656   36.1872 C   0  0  0  0  0  0  0  0  0  0  0  0
  -16.4284  -13.3756   35.3118 C   0  0  0  0  0  0  0  0  0  0  0  0
  -17.1554  -12.1603   35.3687 C   0  0  0  0  0  0  0  0  0  0  0  0
  -16.8174  -11.0783   36.2210 C   0  0  0  0  0  0  0  0  0  0  0  0
  -15.7333  -11.1454   37.0974 C   0  0  0  0  0  0  0  0  0  0  0  0
  -15.3124   -9.7666   37.8689 C   0  0  0  0  0  0  0  0  0  0  0  0
  -16.0604   -8.4949   37.9568 C   0  0  0  0  0  0  0  0  0  0  0  0
  -15.3101   -7.5937   38.6850 C   0  0  0  0  0  0  0  0  0  0  0  0
  -14.2223   -8.3153   39.0725 N   0  0  0  0  0  0  0  0  0  0  0  0
  -14.1165   -9.5207   38.4519 N   0  0  0  0  0  0  0  0  0  0  0  0
  -15.1102  -12.4953   37.1086 C   0  0  0  0  0  0  0  0  0  0  0  0
  -16.0964  -16.4259   35.9252 H   0  0  0  0  0  0  0  0  0  0  0  0
  -16.3971  -19.1136   34.8782 H   0  0  0  0  0  0  0  0  0  0  0  0
  -15.8202  -21.4096   33.5154 H   0  0  0  0  0  0  0  0  0  0  0  0
  -13.9369  -22.8037   32.5269 H   0  0  0  0  0  0  0  0  0  0  0  0
  -11.6190  -21.9020   32.8421 H   0  0  0  0  0  0  0  0  0  0  0  0
  -16.6362  -14.0566   34.5051 H   0  0  0  0  0  0  0  0  0  0  0  0
  -17.9799  -12.0399   34.6678 H   0  0  0  0  0  0  0  0  0  0  0  0
  -17.4026  -10.1684   36.1331 H   0  0  0  0  0  0  0  0  0  0  0  0
  -17.0408   -8.3116   37.5412 H   0  0  0  0  0  0  0  0  0  0  0  0
  -15.4827   -6.5781   39.0103 H   0  0  0  0  0  0  0  0  0  0  0  0
  -13.4463   -8.0172   39.6560 H   0  0  0  0  0  0  0  0  0  0  0  0
  -14.3747  -12.6322   37.8908 H   0  0  0  0  0  0  0  0  0  0  0  0
  1  2  2  0
  2  3  1  0
  3  4  1  0
  4  5  2  0
  5  6  1  0
  6  7  1  0
  7  8  2  0
  8  9  1  0
  9 10  2  0
 10 11  1  0
 11 12  2  0
  2 13  1  0
 13 14  2  0
 14 15  1  0
 15 16  2  0
 16 17  1  0
 17 18  1  0
 18 19  1  0
 19 20  2  0
 20 21  1  0
 21 22  1  0
 17 23  2  0
 12  4  1  0
 23 13  1  0
 11  6  1  0
 22 18  2  0
  3 24  1  0
  5 25  1  0
  7 26  1  0
  8 27  1  0
  9 28  1  0
 14 29  1  0
 15 30  1  0
 16 31  1  0
 19 32  1  0
 20 33  1  0
 21 34  1  0
 23 35  1  0
M  END
>  <Energy>  (823) 
124.18406400907557

>  <compound_id>  (823) 
45283

>  <target_id>  (823) 
1

>  <reference_id>  (823) 
107

>  <inspiration_ids>  (823) 
[107, 7]

>  <energy_score>  (823) 
52.0183291613597

>  <distance_score>  (823) 
7.117676240940562

>  <path>  (823) 
/opt/xchem-fragalysis-2/maxwin/BulkDock/SCRATCH/511022/C45283-P107/C45283-P107.minimised.mol

>  <scratch_subdir>  (823) 
/opt/xchem-fragalysis-2/maxwin/BulkDock/SCRATCH/511022/C45283-P107

>  <fragmenstein_runtime>  (823) 
6.42903470993042

>  <fragmenstein_outcome>  (823) 
too moved

>  <fragmenstein_mode>  (823) 
expansion

>  <fragmenstein_error>  (823) 


$$$$
C45283-P7
     RDKit          3D

 35 38  0  0  0  0  0  0  0  0999 V2000
  -16.9869  -14.8075   37.2697 O   0  0  0  0  0  0  0  0  0  0  0  0
  -16.2259  -14.6843   36.3522 C   0  0  0  0  0  0  0  0  0  0  0  0
  -15.5421  -15.6852   35.5425 N   0  0  0  0  0  0  0  0  0  0  0  0
  -15.6381  -17.0576   35.5320 C   0  0  0  0  0  0  0  0  0  0  0  0
  -16.5173  -17.9199   36.1402 C   0  0  0  0  0  0  0  0  0  0  0  0
  -16.3353  -19.1374   35.5145 N   0  0  0  0  0  0  0  0  0  0  0  0
  -17.0446  -20.3326   35.6042 C   0  0  0  0  0  0  0  0  0  0  0  0
  -16.6832  -21.3815   34.8462 C   0  0  0  0  0  0  0  0  0  0  0  0
  -15.5083  -21.1512   33.9639 C   0  0  0  0  0  0  0  0  0  0  0  0
  -14.8522  -20.0371   33.8579 N   0  0  0  0  0  0  0  0  0  0  0  0
  -15.2667  -18.9974   34.6415 C   0  0  0  0  0  0  0  0  0  0  0  0
  -14.8567  -17.7420   34.6239 N   0  0  0  0  0  0  0  0  0  0  0  0
  -15.9521  -13.2469   35.8677 C   0  0  0  0  0  0  0  0  0  0  0  0
  -15.7915  -13.0218   34.4986 C   0  0  0  0  0  0  0  0  0  0  0  0
  -15.4912  -11.7588   34.0009 C   0  0  0  0  0  0  0  0  0  0  0  0
  -15.3496  -10.6761   34.8598 C   0  0  0  0  0  0  0  0  0  0  0  0
  -15.5241  -10.8352   36.2402 C   0  0  0  0  0  0  0  0  0  0  0  0
  -15.3191   -9.6443   37.0918 C   0  0  0  0  0  0  0  0  0  0  0  0
  -15.7173   -8.2956   36.8291 C   0  0  0  0  0  0  0  0  0  0  0  0
  -15.2212   -7.5437   37.8670 C   0  0  0  0  0  0  0  0  0  0  0  0
  -14.5557   -8.4252   38.6642 N   0  0  0  0  0  0  0  0  0  0  0  0
  -14.6235   -9.6962   38.2355 N   0  0  0  0  0  0  0  0  0  0  0  0
  -15.8413  -12.1301   36.7396 C   0  0  0  0  0  0  0  0  0  0  0  0
  -14.9105  -15.2218   34.9073 H   0  0  0  0  0  0  0  0  0  0  0  0
  -17.3114  -17.7533   36.8539 H   0  0  0  0  0  0  0  0  0  0  0  0
  -17.8753  -20.3620   36.2976 H   0  0  0  0  0  0  0  0  0  0  0  0
  -17.1638  -22.3489   34.8543 H   0  0  0  0  0  0  0  0  0  0  0  0
  -15.1992  -22.0186   33.3599 H   0  0  0  0  0  0  0  0  0  0  0  0
  -15.9029  -13.8218   33.7794 H   0  0  0  0  0  0  0  0  0  0  0  0
  -15.3735  -11.6302   32.9290 H   0  0  0  0  0  0  0  0  0  0  0  0
  -15.0801   -9.7106   34.4380 H   0  0  0  0  0  0  0  0  0  0  0  0
  -16.2848   -7.9321   35.9847 H   0  0  0  0  0  0  0  0  0  0  0  0
  -15.2706   -6.4897   38.0969 H   0  0  0  0  0  0  0  0  0  0  0  0
  -14.0384   -8.2399   39.5181 H   0  0  0  0  0  0  0  0  0  0  0  0
  -15.9711  -12.2700   37.8120 H   0  0  0  0  0  0  0  0  0  0  0  0
  1  2  2  0
  2  3  1  0
  3  4  1  0
  4  5  2  0
  5  6  1  0
  6  7  1  0
  7  8  2  0
  8  9  1  0
  9 10  2  0
 10 11  1  0
 11 12  2  0
  2 13  1  0
 13 14  2  0
 14 15  1  0
 15 16  2  0
 16 17  1  0
 17 18  1  0
 18 19  1  0
 19 20  2  0
 20 21  1  0
 21 22  1  0
 17 23  2  0
 12  4  1  0
 23 13  1  0
 11  6  1  0
 22 18  2  0
  3 24  1  0
  5 25  1  0
  7 26  1  0
  8 27  1  0
  9 28  1  0
 14 29  1  0
 15 30  1  0
 16 31  1  0
 19 32  1  0
 20 33  1  0
 21 34  1  0
 23 35  1  0
M  END
>  <Energy>  (824) 
29.468696434629486

>  <compound_id>  (824) 
45283

>  <target_id>  (824) 
1

>  <reference_id>  (824) 
7

>  <inspiration_ids>  (824) 
[107, 7]

>  <energy_score>  (824) 
-17.878819361883757

>  <distance_score>  (824) 
8.169858452773747

>  <path>  (824) 
/opt/xchem-fragalysis-2/maxwin/BulkDock/SCRATCH/511022/C45283-P7/C45283-P7.minimised.mol

>  <scratch_subdir>  (824) 
/opt/xchem-fragalysis-2/maxwin/BulkDock/SCRATCH/511022/C45283-P7

>  <fragmenstein_runtime>  (824) 
8.919139385223389

>  <fragmenstein_outcome>  (824) 
too moved

>  <fragmenstein_mode>  (824) 
expansion

>  <fragmenstein_error>  (824) 


$$$$
C45284-P107
     RDKit          3D

 38 41  0  0  0  0  0  0  0  0999 V2000
  -16.7887  -16.5122   38.5078 O   0  0  0  0  0  0  0  0  0  0  0  0
  -16.2412  -16.1688   37.4972 C   0  0  0  0  0  0  0  0  0  0  0  0
  -16.0264  -16.8712   36.2630 N   0  0  0  0  0  0  0  0  0  0  0  0
  -16.4852  -18.1714   35.8195 C   0  0  0  0  0  0  0  0  0  0  0  0
  -15.6423  -19.0390   34.9229 C   0  0  0  0  0  0  0  0  0  0  0  0
  -16.1220  -20.1011   34.1676 C   0  0  0  0  0  0  0  0  0  0  0  0
  -15.0278  -20.7943   33.7273 N   0  0  0  0  0  0  0  0  0  0  0  0
  -14.9485  -21.9634   32.9839 C   0  0  0  0  0  0  0  0  0  0  0  0
  -13.7478  -22.4834   32.7001 C   0  0  0  0  0  0  0  0  0  0  0  0
  -12.5975  -21.7140   33.2354 C   0  0  0  0  0  0  0  0  0  0  0  0
  -12.6550  -20.6085   33.9171 N   0  0  0  0  0  0  0  0  0  0  0  0
  -13.9042  -20.1165   34.1896 C   0  0  0  0  0  0  0  0  0  0  0  0
  -14.2654  -19.0173   34.8422 N   0  0  0  0  0  0  0  0  0  0  0  0
  -15.8168  -14.7084   37.5561 C   0  0  0  0  0  0  0  0  0  0  0  0
  -15.5017  -14.1812   38.8246 C   0  0  0  0  0  0  0  0  0  0  0  0
  -15.3100  -12.8018   39.0322 C   0  0  0  0  0  0  0  0  0  0  0  0
  -15.4451  -11.8859   37.9801 C   0  0  0  0  0  0  0  0  0  0  0  0
  -15.3068  -10.4366   38.2542 C   0  0  0  0  0  0  0  0  0  0  0  0
  -14.3196   -9.7951   39.0637 C   0  0  0  0  0  0  0  0  0  0  0  0
  -14.7169   -8.4846   39.1841 C   0  0  0  0  0  0  0  0  0  0  0  0
  -15.8481   -8.3807   38.4375 N   0  0  0  0  0  0  0  0  0  0  0  0
  -16.2019   -9.5257   37.8278 N   0  0  0  0  0  0  0  0  0  0  0  0
  -15.7593  -12.4045   36.7106 C   0  0  0  0  0  0  0  0  0  0  0  0
  -15.9382  -13.8010   36.4961 C   0  0  0  0  0  0  0  0  0  0  0  0
  -15.4529  -16.3009   35.6548 H   0  0  0  0  0  0  0  0  0  0  0  0
  -17.4447  -17.9862   35.3223 H   0  0  0  0  0  0  0  0  0  0  0  0
  -16.7191  -18.7465   36.7238 H   0  0  0  0  0  0  0  0  0  0  0  0
  -17.1263  -20.4606   33.9941 H   0  0  0  0  0  0  0  0  0  0  0  0
  -15.8740  -22.4320   32.6708 H   0  0  0  0  0  0  0  0  0  0  0  0
  -13.5854  -23.4000   32.1526 H   0  0  0  0  0  0  0  0  0  0  0  0
  -11.6122  -22.1458   33.0002 H   0  0  0  0  0  0  0  0  0  0  0  0
  -15.4516  -14.8487   39.6838 H   0  0  0  0  0  0  0  0  0  0  0  0
  -15.0984  -12.4510   40.0394 H   0  0  0  0  0  0  0  0  0  0  0  0
  -13.4661  -10.2626   39.5357 H   0  0  0  0  0  0  0  0  0  0  0  0
  -14.3080   -7.6474   39.7316 H   0  0  0  0  0  0  0  0  0  0  0  0
  -16.4397   -7.5678   38.3026 H   0  0  0  0  0  0  0  0  0  0  0  0
  -15.8809  -11.7223   35.8712 H   0  0  0  0  0  0  0  0  0  0  0  0
  -16.2408  -14.1396   35.5095 H   0  0  0  0  0  0  0  0  0  0  0  0
  1  2  2  0
  2  3  1  0
  3  4  1  0
  4  5  1  0
  5  6  2  0
  6  7  1  0
  7  8  1  0
  8  9  2  0
  9 10  1  0
 10 11  2  0
 11 12  1  0
 12 13  2  0
  2 14  1  0
 14 15  2  0
 15 16  1  0
 16 17  2  0
 17 18  1  0
 18 19  1  0
 19 20  2  0
 20 21  1  0
 21 22  1  0
 17 23  1  0
 23 24  2  0
 13  5  1  0
 24 14  1  0
 12  7  1  0
 22 18  2  0
  3 25  1  0
  4 26  1  0
  4 27  1  0
  6 28  1  0
  8 29  1  0
  9 30  1  0
 10 31  1  0
 15 32  1  0
 16 33  1  0
 19 34  1  0
 20 35  1  0
 21 36  1  0
 23 37  1  0
 24 38  1  0
M  END
>  <Energy>  (825) 
72.398774302491731

>  <compound_id>  (825) 
45284

>  <target_id>  (825) 
1

>  <reference_id>  (825) 
107

>  <inspiration_ids>  (825) 
[107, 7]

>  <energy_score>  (825) 
-8.061047273395957

>  <distance_score>  (825) 
7.2981120243024895

>  <path>  (825) 
/opt/xchem-fragalysis-2/maxwin/BulkDock/SCRATCH/511022/C45284-P107/C45284-P107.minimised.mol

>  <scratch_subdir>  (825) 
/opt/xchem-fragalysis-2/maxwin/BulkDock/SCRATCH/511022/C45284-P107

>  <fragmenstein_runtime>  (825) 
12.7733633518219

>  <fragmenstein_outcome>  (825) 
too moved

>  <fragmenstein_mode>  (825) 
expansion

>  <fragmenstein_error>  (825) 


$$$$
C45284-P7
     RDKit          3D

 38 41  0  0  0  0  0  0  0  0999 V2000
  -17.0628  -14.4224   38.6453 O   0  0  0  0  0  0  0  0  0  0  0  0
  -16.6102  -14.3076   37.5423 C   0  0  0  0  0  0  0  0  0  0  0  0
  -16.2897  -15.2997   36.5526 N   0  0  0  0  0  0  0  0  0  0  0  0
  -16.5031  -16.7365   36.5432 C   0  0  0  0  0  0  0  0  0  0  0  0
  -15.7212  -17.6230   35.6116 C   0  0  0  0  0  0  0  0  0  0  0  0
  -14.4165  -18.0895   35.6506 C   0  0  0  0  0  0  0  0  0  0  0  0
  -14.3863  -19.1977   34.8241 N   0  0  0  0  0  0  0  0  0  0  0  0
  -13.3792  -20.1207   34.5648 C   0  0  0  0  0  0  0  0  0  0  0  0
  -13.6440  -21.1917   33.7960 C   0  0  0  0  0  0  0  0  0  0  0  0
  -15.0230  -21.2305   33.2298 C   0  0  0  0  0  0  0  0  0  0  0  0
  -15.9483  -20.3364   33.4001 N   0  0  0  0  0  0  0  0  0  0  0  0
  -15.6507  -19.3284   34.2630 C   0  0  0  0  0  0  0  0  0  0  0  0
  -16.4219  -18.3442   34.6615 N   0  0  0  0  0  0  0  0  0  0  0  0
  -16.3113  -12.8585   37.2088 C   0  0  0  0  0  0  0  0  0  0  0  0
  -16.5689  -12.2320   35.9876 C   0  0  0  0  0  0  0  0  0  0  0  0
  -16.3887  -10.8254   35.8530 C   0  0  0  0  0  0  0  0  0  0  0  0
  -15.9430  -10.0222   36.9250 C   0  0  0  0  0  0  0  0  0  0  0  0
  -15.8622   -8.5397   36.8637 C   0  0  0  0  0  0  0  0  0  0  0  0
  -16.5189   -7.6474   35.9655 C   0  0  0  0  0  0  0  0  0  0  0  0
  -16.2267   -6.3760   36.4034 C   0  0  0  0  0  0  0  0  0  0  0  0
  -15.4232   -6.5422   37.4850 N   0  0  0  0  0  0  0  0  0  0  0  0
  -15.1636   -7.8267   37.7699 N   0  0  0  0  0  0  0  0  0  0  0  0
  -15.6405  -10.6763   38.1245 C   0  0  0  0  0  0  0  0  0  0  0  0
  -15.8336  -12.0593   38.2667 C   0  0  0  0  0  0  0  0  0  0  0  0
  -16.0028  -14.8355   35.7018 H   0  0  0  0  0  0  0  0  0  0  0  0
  -16.3452  -17.0835   37.5716 H   0  0  0  0  0  0  0  0  0  0  0  0
  -17.5736  -16.8728   36.3475 H   0  0  0  0  0  0  0  0  0  0  0  0
  -13.5732  -17.8352   36.2765 H   0  0  0  0  0  0  0  0  0  0  0  0
  -12.4305  -19.9564   35.0526 H   0  0  0  0  0  0  0  0  0  0  0  0
  -12.9487  -21.9925   33.5933 H   0  0  0  0  0  0  0  0  0  0  0  0
  -15.2657  -22.0796   32.5828 H   0  0  0  0  0  0  0  0  0  0  0  0
  -16.9686  -12.7960   35.1496 H   0  0  0  0  0  0  0  0  0  0  0  0
  -16.6277  -10.3660   34.8957 H   0  0  0  0  0  0  0  0  0  0  0  0
  -17.1557   -7.9056   35.1321 H   0  0  0  0  0  0  0  0  0  0  0  0
  -16.5153   -5.3981   36.0497 H   0  0  0  0  0  0  0  0  0  0  0  0
  -15.0176   -5.8296   38.0814 H   0  0  0  0  0  0  0  0  0  0  0  0
  -15.2878  -10.1086   38.9849 H   0  0  0  0  0  0  0  0  0  0  0  0
  -15.6295  -12.5082   39.2395 H   0  0  0  0  0  0  0  0  0  0  0  0
  1  2  2  0
  2  3  1  0
  3  4  1  0
  4  5  1  0
  5  6  2  0
  6  7  1  0
  7  8  1  0
  8  9  2  0
  9 10  1  0
 10 11  2  0
 11 12  1  0
 12 13  2  0
  2 14  1  0
 14 15  2  0
 15 16  1  0
 16 17  2  0
 17 18  1  0
 18 19  1  0
 19 20  2  0
 20 21  1  0
 21 22  1  0
 17 23  1  0
 23 24  2  0
 13  5  1  0
 24 14  1  0
 12  7  1  0
 22 18  2  0
  3 25  1  0
  4 26  1  0
  4 27  1  0
  6 28  1  0
  8 29  1  0
  9 30  1  0
 10 31  1  0
 15 32  1  0
 16 33  1  0
 19 34  1  0
 20 35  1  0
 21 36  1  0
 23 37  1  0
 24 38  1  0
M  END
>  <Energy>  (826) 
71.655123453612347

>  <compound_id>  (826) 
45284

>  <target_id>  (826) 
1

>  <reference_id>  (826) 
7

>  <inspiration_ids>  (826) 
[107, 7]

>  <energy_score>  (826) 
-8.804698122278438

>  <distance_score>  (826) 
7.248256524033251

>  <path>  (826) 
/opt/xchem-fragalysis-2/maxwin/BulkDock/SCRATCH/511022/C45284-P7/C45284-P7.minimised.mol

>  <scratch_subdir>  (826) 
/opt/xchem-fragalysis-2/maxwin/BulkDock/SCRATCH/511022/C45284-P7

>  <fragmenstein_runtime>  (826) 
9.133167505264282

>  <fragmenstein_outcome>  (826) 
too moved

>  <fragmenstein_mode>  (826) 
expansion

>  <fragmenstein_error>  (826) 


$$$$
C48976-P107
     RDKit          3D

 44 47  0  0  0  0  0  0  0  0999 V2000
  -14.7458  -12.6700   34.6611 C   0  0  0  0  0  0  0  0  0  0  0  0
  -14.5566  -14.0349   35.2071 C   0  0  0  0  0  0  0  0  0  0  0  0
  -13.8788  -14.9676   34.4586 N   0  0  0  0  0  0  0  0  0  0  0  0
  -14.0899  -16.1262   35.0311 C   0  0  0  0  0  0  0  0  0  0  0  0
  -13.7944  -17.3748   34.5480 N   0  0  0  0  0  0  0  0  0  0  0  0
  -14.1287  -18.3737   35.2987 C   0  0  0  0  0  0  0  0  0  0  0  0
  -14.8267  -18.2801   36.6045 C   0  0  0  0  0  0  0  0  0  0  0  0
  -15.1073  -17.0388   37.0247 C   0  0  0  0  0  0  0  0  0  0  0  0
  -14.7590  -15.9368   36.2458 N   0  0  0  0  0  0  0  0  0  0  0  0
  -14.9676  -14.5567   36.4284 C   0  0  0  0  0  0  0  0  0  0  0  0
  -15.5697  -13.8940   37.6150 C   0  0  0  0  0  0  0  0  0  0  0  0
  -16.3188  -14.5657   38.2614 O   0  0  0  0  0  0  0  0  0  0  0  0
  -15.0985  -12.5390   37.8244 N   0  0  0  0  0  0  0  0  0  0  0  0
  -15.3119  -11.6153   38.9290 C   0  0  0  0  0  0  0  0  0  0  0  0
  -15.2717  -10.1030   38.6830 C   0  0  0  0  0  0  0  0  0  0  0  0
  -16.1131   -9.5127   37.8195 N   0  0  0  0  0  0  0  0  0  0  0  0
  -16.0899   -8.2113   38.1499 N   0  0  0  0  0  0  0  0  0  0  0  0
  -15.2476   -7.9070   39.1798 C   0  0  0  0  0  0  0  0  0  0  0  0
  -14.6180   -9.0974   39.4997 C   0  0  0  0  0  0  0  0  0  0  0  0
  -13.6515   -9.3291   40.6100 C   0  0  0  0  0  0  0  0  0  0  0  0
  -12.6495   -8.2085   40.8624 C   0  0  0  0  0  0  0  0  0  0  0  0
  -13.2720   -6.9293   41.4207 C   0  0  0  0  0  0  0  0  0  0  0  0
  -13.9348   -6.0539   40.3599 C   0  0  0  0  0  0  0  0  0  0  0  0
  -15.2694   -6.5657   39.8300 C   0  0  0  0  0  0  0  0  0  0  0  0
  -13.8809  -12.0540   34.9046 H   0  0  0  0  0  0  0  0  0  0  0  0
  -15.6435  -12.1960   35.0694 H   0  0  0  0  0  0  0  0  0  0  0  0
  -14.8635  -12.6959   33.5748 H   0  0  0  0  0  0  0  0  0  0  0  0
  -13.8982  -19.3948   34.9551 H   0  0  0  0  0  0  0  0  0  0  0  0
  -15.1101  -19.1638   37.1515 H   0  0  0  0  0  0  0  0  0  0  0  0
  -15.6355  -16.8470   37.9497 H   0  0  0  0  0  0  0  0  0  0  0  0
  -14.4005  -12.3170   37.1177 H   0  0  0  0  0  0  0  0  0  0  0  0
  -14.5562  -11.8788   39.6767 H   0  0  0  0  0  0  0  0  0  0  0  0
  -16.2824  -11.8655   39.3744 H   0  0  0  0  0  0  0  0  0  0  0  0
  -16.7349   -7.5925   37.6706 H   0  0  0  0  0  0  0  0  0  0  0  0
  -14.2128   -9.5384   41.5293 H   0  0  0  0  0  0  0  0  0  0  0  0
  -13.0754  -10.2357   40.3860 H   0  0  0  0  0  0  0  0  0  0  0  0
  -12.0765   -7.9902   39.9543 H   0  0  0  0  0  0  0  0  0  0  0  0
  -11.9261   -8.5756   41.6020 H   0  0  0  0  0  0  0  0  0  0  0  0
  -13.9786   -7.1600   42.2267 H   0  0  0  0  0  0  0  0  0  0  0  0
  -12.4654   -6.3398   41.8751 H   0  0  0  0  0  0  0  0  0  0  0  0
  -13.2318   -5.8763   39.5422 H   0  0  0  0  0  0  0  0  0  0  0  0
  -14.1186   -5.0688   40.8089 H   0  0  0  0  0  0  0  0  0  0  0  0
  -15.6569   -5.8253   39.1180 H   0  0  0  0  0  0  0  0  0  0  0  0
  -15.9901   -6.6010   40.6572 H   0  0  0  0  0  0  0  0  0  0  0  0
  1  2  1  0
  2  3  1  0
  3  4  2  0
  4  5  1  0
  5  6  2  0
  6  7  1  0
  7  8  2  0
  8  9  1  0
  9 10  1  0
 10 11  1  0
 11 12  2  0
 11 13  1  0
 13 14  1  0
 14 15  1  0
 15 16  2  0
 16 17  1  0
 17 18  1  0
 18 19  2  0
 19 20  1  0
 20 21  1  0
 21 22  1  0
 22 23  1  0
 23 24  1  0
 10  2  2  0
 19 15  1  0
  9  4  1  0
 24 18  1  0
  1 25  1  0
  1 26  1  0
  1 27  1  0
  6 28  1  0
  7 29  1  0
  8 30  1  0
 13 31  1  0
 14 32  1  0
 14 33  1  0
 17 34  1  0
 20 35  1  0
 20 36  1  0
 21 37  1  0
 21 38  1  0
 22 39  1  0
 22 40  1  0
 23 41  1  0
 23 42  1  0
 24 43  1  0
 24 44  1  0
M  END
>  <Energy>  (827) 
15.804649136357309

>  <compound_id>  (827) 
48976

>  <target_id>  (827) 
1

>  <reference_id>  (827) 
107

>  <inspiration_ids>  (827) 
[107, 7]

>  <energy_score>  (827) 
-51.960372038828325

>  <distance_score>  (827) 
9.583970144490443

>  <path>  (827) 
/opt/xchem-fragalysis-2/maxwin/BulkDock/SCRATCH/511022/C48976-P107/C48976-P107.minimised.mol

>  <scratch_subdir>  (827) 
/opt/xchem-fragalysis-2/maxwin/BulkDock/SCRATCH/511022/C48976-P107

>  <fragmenstein_runtime>  (827) 
26.601728200912476

>  <fragmenstein_outcome>  (827) 
too moved

>  <fragmenstein_mode>  (827) 
expansion

>  <fragmenstein_error>  (827) 


$$$$
C48976-P7
     RDKit          3D

 44 47  0  0  0  0  0  0  0  0999 V2000
  -15.9339  -10.8679   37.9794 C   0  0  0  0  0  0  0  0  0  0  0  0
  -15.6554  -11.9075   36.9514 C   0  0  0  0  0  0  0  0  0  0  0  0
  -16.1063  -13.1834   37.1811 N   0  0  0  0  0  0  0  0  0  0  0  0
  -15.8185  -13.8780   36.1117 C   0  0  0  0  0  0  0  0  0  0  0  0
  -15.8449  -15.2496   36.0141 N   0  0  0  0  0  0  0  0  0  0  0  0
  -15.0604  -15.7762   35.1302 C   0  0  0  0  0  0  0  0  0  0  0  0
  -14.2718  -15.0097   34.1431 C   0  0  0  0  0  0  0  0  0  0  0  0
  -14.4952  -13.6810   34.1509 C   0  0  0  0  0  0  0  0  0  0  0  0
  -15.1423  -13.0613   35.1892 N   0  0  0  0  0  0  0  0  0  0  0  0
  -15.0180  -11.7534   35.7067 C   0  0  0  0  0  0  0  0  0  0  0  0
  -14.7166  -10.3637   35.1953 C   0  0  0  0  0  0  0  0  0  0  0  0
  -15.3981   -9.9769   34.2912 O   0  0  0  0  0  0  0  0  0  0  0  0
  -13.6873   -9.6704   35.9793 N   0  0  0  0  0  0  0  0  0  0  0  0
  -13.2332   -8.2011   35.9699 C   0  0  0  0  0  0  0  0  0  0  0  0
  -11.7676   -6.7088   35.6225 C   0  0  0  0  0  0  0  0  0  0  0  0
  -10.7547   -6.2077   34.9806 N   0  0  0  0  0  0  0  0  0  0  0  0
  -10.3613   -5.2654   35.9146 N   0  0  0  0  0  0  0  0  0  0  0  0
  -11.2012   -4.2137   36.1286 C   0  0  0  0  0  0  0  0  0  0  0  0
  -12.3318   -4.9622   36.1277 C   0  0  0  0  0  0  0  0  0  0  0  0
  -13.6947   -4.4686   36.8176 C   0  0  0  0  0  0  0  0  0  0  0  0
  -13.4576   -3.5228   38.0092 C   0  0  0  0  0  0  0  0  0  0  0  0
  -13.0858   -2.0860   37.6291 C   0  0  0  0  0  0  0  0  0  0  0  0
  -12.0736   -1.9064   36.4936 C   0  0  0  0  0  0  0  0  0  0  0  0
  -10.8700   -2.8420   36.5757 C   0  0  0  0  0  0  0  0  0  0  0  0
  -16.4093   -9.9908   37.5298 H   0  0  0  0  0  0  0  0  0  0  0  0
  -15.0053  -10.5562   38.4672 H   0  0  0  0  0  0  0  0  0  0  0  0
  -16.6071  -11.2543   38.7514 H   0  0  0  0  0  0  0  0  0  0  0  0
  -14.9863  -16.8734   35.0553 H   0  0  0  0  0  0  0  0  0  0  0  0
  -13.6863  -15.5415   33.4048 H   0  0  0  0  0  0  0  0  0  0  0  0
  -14.1921  -13.0012   33.3968 H   0  0  0  0  0  0  0  0  0  0  0  0
  -13.2520  -10.3325   36.6163 H   0  0  0  0  0  0  0  0  0  0  0  0
  -13.1936   -8.3264   37.1087 H   0  0  0  0  0  0  0  0  0  0  0  0
  -14.2527   -7.7146   36.1081 H   0  0  0  0  0  0  0  0  0  0  0  0
   -9.3644   -5.2883   36.0851 H   0  0  0  0  0  0  0  0  0  0  0  0
  -14.3624   -3.9485   36.1280 H   0  0  0  0  0  0  0  0  0  0  0  0
  -14.2627   -5.3415   37.1615 H   0  0  0  0  0  0  0  0  0  0  0  0
  -12.6885   -3.9157   38.6839 H   0  0  0  0  0  0  0  0  0  0  0  0
  -14.3790   -3.4806   38.6041 H   0  0  0  0  0  0  0  0  0  0  0  0
  -13.9994   -1.5404   37.3674 H   0  0  0  0  0  0  0  0  0  0  0  0
  -12.6971   -1.5913   38.5287 H   0  0  0  0  0  0  0  0  0  0  0  0
  -11.7186   -0.8686   36.5241 H   0  0  0  0  0  0  0  0  0  0  0  0
  -12.5746   -2.0259   35.5261 H   0  0  0  0  0  0  0  0  0  0  0  0
  -10.0766   -2.4327   35.9403 H   0  0  0  0  0  0  0  0  0  0  0  0
  -10.4887   -2.8579   37.6026 H   0  0  0  0  0  0  0  0  0  0  0  0
  1  2  1  0
  2  3  1  0
  3  4  2  0
  4  5  1  0
  5  6  2  0
  6  7  1  0
  7  8  2  0
  8  9  1  0
  9 10  1  0
 10 11  1  0
 11 12  2  0
 11 13  1  0
 13 14  1  0
 14 15  1  0
 15 16  2  0
 16 17  1  0
 17 18  1  0
 18 19  2  0
 19 20  1  0
 20 21  1  0
 21 22  1  0
 22 23  1  0
 23 24  1  0
 10  2  2  0
 19 15  1  0
  9  4  1  0
 24 18  1  0
  1 25  1  0
  1 26  1  0
  1 27  1  0
  6 28  1  0
  7 29  1  0
  8 30  1  0
 13 31  1  0
 14 32  1  0
 14 33  1  0
 17 34  1  0
 20 35  1  0
 20 36  1  0
 21 37  1  0
 21 38  1  0
 22 39  1  0
 22 40  1  0
 23 41  1  0
 23 42  1  0
 24 43  1  0
 24 44  1  0
M  END
>  <Energy>  (828) 
305.75419207324506

>  <compound_id>  (828) 
48976

>  <target_id>  (828) 
1

>  <reference_id>  (828) 
7

>  <inspiration_ids>  (828) 
[107, 7]

>  <energy_score>  (828) 
237.98917089806034

>  <distance_score>  (828) 
9.865701158052094

>  <path>  (828) 
/opt/xchem-fragalysis-2/maxwin/BulkDock/SCRATCH/511022/C48976-P7/C48976-P7.minimised.mol

>  <scratch_subdir>  (828) 
/opt/xchem-fragalysis-2/maxwin/BulkDock/SCRATCH/511022/C48976-P7

>  <fragmenstein_runtime>  (828) 
24.428369998931885

>  <fragmenstein_outcome>  (828) 
too moved

>  <fragmenstein_mode>  (828) 
expansion

>  <fragmenstein_error>  (828) 


$$$$
C45285-P107
     RDKit          3D

 44 46  0  0  0  0  0  0  0  0999 V2000
  -17.6713  -11.2080   36.5681 C   0  0  0  0  0  0  0  0  0  0  0  0
  -17.1802  -12.6554   36.6513 C   0  0  0  0  0  0  0  0  0  0  0  0
  -17.1318  -13.1070   38.1135 C   0  0  0  0  0  0  0  0  0  0  0  0
  -15.8379  -12.8411   35.9105 C   0  0  0  0  0  0  0  0  0  0  0  0
  -14.6749  -11.9421   36.5005 C   0  0  0  0  0  0  0  0  0  0  0  0
  -14.3072  -10.6520   35.9494 N   0  0  0  0  0  0  0  0  0  0  0  0
  -13.5460   -9.3800   36.6232 C   0  0  0  0  0  0  0  0  0  0  0  0
  -13.2075   -9.2423   37.7741 O   0  0  0  0  0  0  0  0  0  0  0  0
  -13.1818   -7.6745   35.5844 C   0  0  0  0  0  0  0  0  0  0  0  0
  -14.0408   -6.2981   35.5365 C   0  0  0  0  0  0  0  0  0  0  0  0
  -13.0582   -5.2949   35.5118 C   0  0  0  0  0  0  0  0  0  0  0  0
  -11.9341   -5.8610   35.0939 N   0  0  0  0  0  0  0  0  0  0  0  0
  -11.9339   -7.2100   35.1941 N   0  0  0  0  0  0  0  0  0  0  0  0
  -15.4648  -14.3125   35.8119 N   0  0  0  0  0  0  0  0  0  0  0  0
  -14.2991  -14.9588   35.2523 C   0  0  0  0  0  0  0  0  0  0  0  0
  -13.2953  -14.4954   34.7953 O   0  0  0  0  0  0  0  0  0  0  0  0
  -14.3187  -16.4745   35.2842 C   0  0  0  0  0  0  0  0  0  0  0  0
  -13.1807  -17.2723   35.1987 C   0  0  0  0  0  0  0  0  0  0  0  0
  -13.6015  -18.5370   34.8891 N   0  0  0  0  0  0  0  0  0  0  0  0
  -12.8686  -19.6517   34.4980 C   0  0  0  0  0  0  0  0  0  0  0  0
  -13.5043  -20.7241   33.9989 C   0  0  0  0  0  0  0  0  0  0  0  0
  -14.9904  -20.6046   33.9702 C   0  0  0  0  0  0  0  0  0  0  0  0
  -15.6885  -19.5834   34.3752 N   0  0  0  0  0  0  0  0  0  0  0  0
  -14.9909  -18.5072   34.8584 C   0  0  0  0  0  0  0  0  0  0  0  0
  -15.4321  -17.3015   35.1945 N   0  0  0  0  0  0  0  0  0  0  0  0
  -18.6796  -11.1200   36.9870 H   0  0  0  0  0  0  0  0  0  0  0  0
  -17.7133  -10.8697   35.5280 H   0  0  0  0  0  0  0  0  0  0  0  0
  -17.0210  -10.5249   37.1241 H   0  0  0  0  0  0  0  0  0  0  0  0
  -17.9278  -13.2792   36.1471 H   0  0  0  0  0  0  0  0  0  0  0  0
  -16.7884  -14.1424   38.2013 H   0  0  0  0  0  0  0  0  0  0  0  0
  -18.1308  -13.0545   38.5605 H   0  0  0  0  0  0  0  0  0  0  0  0
  -16.4713  -12.4757   38.7156 H   0  0  0  0  0  0  0  0  0  0  0  0
  -15.9770  -12.5393   34.8633 H   0  0  0  0  0  0  0  0  0  0  0  0
  -14.5860  -11.9584   37.5863 H   0  0  0  0  0  0  0  0  0  0  0  0
  -13.8942  -12.4609   35.9735 H   0  0  0  0  0  0  0  0  0  0  0  0
  -14.3768  -10.5084   34.9562 H   0  0  0  0  0  0  0  0  0  0  0  0
  -15.0364   -6.2346   35.9786 H   0  0  0  0  0  0  0  0  0  0  0  0
  -13.0041   -4.3066   35.9537 H   0  0  0  0  0  0  0  0  0  0  0  0
  -11.0288   -5.4748   35.2495 H   0  0  0  0  0  0  0  0  0  0  0  0
  -16.1660  -15.0210   36.0274 H   0  0  0  0  0  0  0  0  0  0  0  0
  -12.1330  -17.0095   35.1716 H   0  0  0  0  0  0  0  0  0  0  0  0
  -11.7931  -19.5700   34.5487 H   0  0  0  0  0  0  0  0  0  0  0  0
  -13.0230  -21.6240   33.6415 H   0  0  0  0  0  0  0  0  0  0  0  0
  -15.5205  -21.4866   33.5710 H   0  0  0  0  0  0  0  0  0  0  0  0
  1  2  1  0
  2  3  1  0
  2  4  1  0
  4  5  1  0
  5  6  1  0
  6  7  1  0
  7  8  2  0
  7  9  1  0
  9 10  1  0
 10 11  2  0
 11 12  1  0
 12 13  1  0
  4 14  1  0
 14 15  1  0
 15 16  2  0
 15 17  1  0
 17 18  2  0
 18 19  1  0
 19 20  1  0
 20 21  2  0
 21 22  1  0
 22 23  2  0
 23 24  1  0
 24 25  2  0
 13  9  2  0
 25 17  1  0
 24 19  1  0
  1 26  1  0
  1 27  1  0
  1 28  1  0
  2 29  1  0
  3 30  1  0
  3 31  1  0
  3 32  1  0
  4 33  1  0
  5 34  1  0
  5 35  1  0
  6 36  1  0
 10 37  1  0
 11 38  1  0
 12 39  1  0
 14 40  1  0
 18 41  1  0
 20 42  1  0
 21 43  1  0
 22 44  1  0
M  END
>  <Energy>  (829) 
248.15228108549815

>  <compound_id>  (829) 
45285

>  <target_id>  (829) 
1

>  <reference_id>  (829) 
107

>  <inspiration_ids>  (829) 
[107, 7]

>  <energy_score>  (829) 
122.3141556129379

>  <distance_score>  (829) 
6.775210619732357

>  <path>  (829) 
/opt/xchem-fragalysis-2/maxwin/BulkDock/SCRATCH/511022/C45285-P107/C45285-P107.minimised.mol

>  <scratch_subdir>  (829) 
/opt/xchem-fragalysis-2/maxwin/BulkDock/SCRATCH/511022/C45285-P107

>  <fragmenstein_runtime>  (829) 
12.175677061080933

>  <fragmenstein_outcome>  (829) 
too moved

>  <fragmenstein_mode>  (829) 
expansion

>  <fragmenstein_error>  (829) 


$$$$
C45285-P7
     RDKit          3D

 44 46  0  0  0  0  0  0  0  0999 V2000
  -16.3942   -7.4166   35.2980 C   0  0  0  0  0  0  0  0  0  0  0  0
  -15.9535   -8.8642   35.5405 C   0  0  0  0  0  0  0  0  0  0  0  0
  -16.2259   -9.2426   37.0051 C   0  0  0  0  0  0  0  0  0  0  0  0
  -14.4838   -9.2707   35.0522 C   0  0  0  0  0  0  0  0  0  0  0  0
  -13.2943   -8.4410   35.9686 C   0  0  0  0  0  0  0  0  0  0  0  0
  -11.9873   -6.9157   35.7107 N   0  0  0  0  0  0  0  0  0  0  0  0
  -12.1631   -5.1262   36.0907 C   0  0  0  0  0  0  0  0  0  0  0  0
  -13.1312   -4.6593   36.6553 O   0  0  0  0  0  0  0  0  0  0  0  0
  -11.1635   -4.0835   35.9015 C   0  0  0  0  0  0  0  0  0  0  0  0
  -10.7195   -3.4553   37.1449 C   0  0  0  0  0  0  0  0  0  0  0  0
  -10.5206   -2.1234   36.9125 C   0  0  0  0  0  0  0  0  0  0  0  0
  -10.9956   -1.9468   35.6637 N   0  0  0  0  0  0  0  0  0  0  0  0
  -11.3485   -3.0706   35.0203 N   0  0  0  0  0  0  0  0  0  0  0  0
  -14.4389  -10.7996   35.0227 N   0  0  0  0  0  0  0  0  0  0  0  0
  -15.5127  -11.7889   34.8623 C   0  0  0  0  0  0  0  0  0  0  0  0
  -16.7022  -11.6453   34.7945 O   0  0  0  0  0  0  0  0  0  0  0  0
  -15.0918  -13.2360   34.8064 C   0  0  0  0  0  0  0  0  0  0  0  0
  -15.9009  -14.2929   35.2257 C   0  0  0  0  0  0  0  0  0  0  0  0
  -15.1832  -15.4472   35.0568 N   0  0  0  0  0  0  0  0  0  0  0  0
  -15.4317  -16.7518   35.4939 C   0  0  0  0  0  0  0  0  0  0  0  0
  -14.5007  -17.7008   35.3203 C   0  0  0  0  0  0  0  0  0  0  0  0
  -13.2381  -17.2123   34.7085 C   0  0  0  0  0  0  0  0  0  0  0  0
  -13.0157  -16.0061   34.2812 N   0  0  0  0  0  0  0  0  0  0  0  0
  -14.0131  -15.0925   34.3986 C   0  0  0  0  0  0  0  0  0  0  0  0
  -13.8966  -13.7685   34.3444 N   0  0  0  0  0  0  0  0  0  0  0  0
  -17.4653   -7.3118   35.5090 H   0  0  0  0  0  0  0  0  0  0  0  0
  -16.2535   -7.1342   34.2502 H   0  0  0  0  0  0  0  0  0  0  0  0
  -15.8795   -6.7024   35.9461 H   0  0  0  0  0  0  0  0  0  0  0  0
  -16.6588   -9.4261   34.9257 H   0  0  0  0  0  0  0  0  0  0  0  0
  -15.9398  -10.2754   37.2221 H   0  0  0  0  0  0  0  0  0  0  0  0
  -17.2948   -9.1474   37.2272 H   0  0  0  0  0  0  0  0  0  0  0  0
  -15.6914   -8.5928   37.7045 H   0  0  0  0  0  0  0  0  0  0  0  0
  -14.4416   -9.0381   33.9980 H   0  0  0  0  0  0  0  0  0  0  0  0
  -13.1600   -9.0570   36.9036 H   0  0  0  0  0  0  0  0  0  0  0  0
  -14.0590   -7.8282   36.5051 H   0  0  0  0  0  0  0  0  0  0  0  0
  -11.1699   -7.0508   35.1773 H   0  0  0  0  0  0  0  0  0  0  0  0
  -10.7180   -3.9192   38.1254 H   0  0  0  0  0  0  0  0  0  0  0  0
  -10.2492   -1.2986   37.5558 H   0  0  0  0  0  0  0  0  0  0  0  0
  -11.1778   -1.0606   35.2160 H   0  0  0  0  0  0  0  0  0  0  0  0
  -13.5406  -11.2709   34.9565 H   0  0  0  0  0  0  0  0  0  0  0  0
  -16.8952  -14.2921   35.6525 H   0  0  0  0  0  0  0  0  0  0  0  0
  -16.3870  -16.9343   35.9726 H   0  0  0  0  0  0  0  0  0  0  0  0
  -14.5920  -18.7304   35.6317 H   0  0  0  0  0  0  0  0  0  0  0  0
  -12.4339  -17.9650   34.6502 H   0  0  0  0  0  0  0  0  0  0  0  0
  1  2  1  0
  2  3  1  0
  2  4  1  0
  4  5  1  0
  5  6  1  0
  6  7  1  0
  7  8  2  0
  7  9  1  0
  9 10  1  0
 10 11  2  0
 11 12  1  0
 12 13  1  0
  4 14  1  0
 14 15  1  0
 15 16  2  0
 15 17  1  0
 17 18  2  0
 18 19  1  0
 19 20  1  0
 20 21  2  0
 21 22  1  0
 22 23  2  0
 23 24  1  0
 24 25  2  0
 13  9  2  0
 25 17  1  0
 24 19  1  0
  1 26  1  0
  1 27  1  0
  1 28  1  0
  2 29  1  0
  3 30  1  0
  3 31  1  0
  3 32  1  0
  4 33  1  0
  5 34  1  0
  5 35  1  0
  6 36  1  0
 10 37  1  0
 11 38  1  0
 12 39  1  0
 14 40  1  0
 18 41  1  0
 20 42  1  0
 21 43  1  0
 22 44  1  0
M  END
>  <Energy>  (830) 
324.20491004104497

>  <compound_id>  (830) 
45285

>  <target_id>  (830) 
1

>  <reference_id>  (830) 
7

>  <inspiration_ids>  (830) 
[107, 7]

>  <energy_score>  (830) 
198.36678456848705

>  <distance_score>  (830) 
8.08451817003376

>  <path>  (830) 
/opt/xchem-fragalysis-2/maxwin/BulkDock/SCRATCH/511022/C45285-P7/C45285-P7.minimised.mol

>  <scratch_subdir>  (830) 
/opt/xchem-fragalysis-2/maxwin/BulkDock/SCRATCH/511022/C45285-P7

>  <fragmenstein_runtime>  (830) 
15.274374961853027

>  <fragmenstein_outcome>  (830) 
too moved

>  <fragmenstein_mode>  (830) 
expansion

>  <fragmenstein_error>  (830) 


$$$$
C45286-P107
     RDKit          3D

 40 42  0  0  0  0  0  0  0  0999 V2000
  -12.6644  -23.0021   32.2159 C   0  0  0  0  0  0  0  0  0  0  0  0
  -13.3780  -21.9320   33.0105 C   0  0  0  0  0  0  0  0  0  0  0  0
  -14.8752  -21.9496   32.9762 C   0  0  0  0  0  0  0  0  0  0  0  0
  -15.4912  -20.9419   33.6108 C   0  0  0  0  0  0  0  0  0  0  0  0
  -14.7332  -19.9760   34.2571 N   0  0  0  0  0  0  0  0  0  0  0  0
  -15.1167  -18.7901   34.8585 C   0  0  0  0  0  0  0  0  0  0  0  0
  -13.9445  -18.1158   35.1461 C   0  0  0  0  0  0  0  0  0  0  0  0
  -13.6370  -16.6685   35.4378 C   0  0  0  0  0  0  0  0  0  0  0  0
  -14.5032  -15.9047   36.3220 N   0  0  0  0  0  0  0  0  0  0  0  0
  -15.0049  -14.5365   36.2216 C   0  0  0  0  0  0  0  0  0  0  0  0
  -14.8927  -13.7253   35.3412 O   0  0  0  0  0  0  0  0  0  0  0  0
  -15.8021  -14.0158   37.5320 C   0  0  0  0  0  0  0  0  0  0  0  0
  -15.7513  -14.9603   38.7546 C   0  0  0  0  0  0  0  0  0  0  0  0
  -17.2910  -13.9313   37.1300 C   0  0  0  0  0  0  0  0  0  0  0  0
  -15.3292  -12.5715   37.9412 C   0  0  0  0  0  0  0  0  0  0  0  0
  -15.4330  -11.3483   37.2045 C   0  0  0  0  0  0  0  0  0  0  0  0
  -14.9395  -10.3669   38.0312 C   0  0  0  0  0  0  0  0  0  0  0  0
  -14.5016  -11.0160   39.1415 N   0  0  0  0  0  0  0  0  0  0  0  0
  -14.8180  -12.3228   39.1661 N   0  0  0  0  0  0  0  0  0  0  0  0
  -12.8751  -18.9642   34.8899 N   0  0  0  0  0  0  0  0  0  0  0  0
  -13.3439  -20.0451   34.3002 C   0  0  0  0  0  0  0  0  0  0  0  0
  -12.6683  -21.0508   33.6566 N   0  0  0  0  0  0  0  0  0  0  0  0
  -11.6372  -22.6911   32.0036 H   0  0  0  0  0  0  0  0  0  0  0  0
  -13.1787  -23.1775   31.2672 H   0  0  0  0  0  0  0  0  0  0  0  0
  -12.6443  -23.9272   32.7986 H   0  0  0  0  0  0  0  0  0  0  0  0
  -15.3966  -22.7350   32.4509 H   0  0  0  0  0  0  0  0  0  0  0  0
  -16.5677  -20.8358   33.6355 H   0  0  0  0  0  0  0  0  0  0  0  0
  -16.1523  -18.4850   34.8997 H   0  0  0  0  0  0  0  0  0  0  0  0
  -13.5671  -16.1219   34.4907 H   0  0  0  0  0  0  0  0  0  0  0  0
  -12.6485  -16.6333   35.9048 H   0  0  0  0  0  0  0  0  0  0  0  0
  -14.7141  -16.2657   37.2358 H   0  0  0  0  0  0  0  0  0  0  0  0
  -14.7266  -15.1497   39.0838 H   0  0  0  0  0  0  0  0  0  0  0  0
  -16.2967  -14.5395   39.6085 H   0  0  0  0  0  0  0  0  0  0  0  0
  -16.2155  -15.9300   38.5391 H   0  0  0  0  0  0  0  0  0  0  0  0
  -17.8929  -13.4603   37.9163 H   0  0  0  0  0  0  0  0  0  0  0  0
  -17.6986  -14.9317   36.9557 H   0  0  0  0  0  0  0  0  0  0  0  0
  -17.4332  -13.3474   36.2137 H   0  0  0  0  0  0  0  0  0  0  0  0
  -15.8163  -11.2343   36.2003 H   0  0  0  0  0  0  0  0  0  0  0  0
  -14.8302   -9.3027   37.9276 H   0  0  0  0  0  0  0  0  0  0  0  0
  -14.0213  -10.6284   39.9452 H   0  0  0  0  0  0  0  0  0  0  0  0
  1  2  1  0
  2  3  1  0
  3  4  2  0
  4  5  1  0
  5  6  1  0
  6  7  2  0
  7  8  1  0
  8  9  1  0
  9 10  1  0
 10 11  2  0
 10 12  1  0
 12 13  1  0
 12 14  1  0
 12 15  1  0
 15 16  1  0
 16 17  2  0
 17 18  1  0
 18 19  1  0
  7 20  1  0
 20 21  2  0
 21 22  1  0
 22  2  2  0
 21  5  1  0
 19 15  2  0
  1 23  1  0
  1 24  1  0
  1 25  1  0
  3 26  1  0
  4 27  1  0
  6 28  1  0
  8 29  1  0
  8 30  1  0
  9 31  1  0
 13 32  1  0
 13 33  1  0
 13 34  1  0
 14 35  1  0
 14 36  1  0
 14 37  1  0
 16 38  1  0
 17 39  1  0
 18 40  1  0
M  END
>  <Energy>  (831) 
72.784594956396319

>  <compound_id>  (831) 
45286

>  <target_id>  (831) 
1

>  <reference_id>  (831) 
107

>  <inspiration_ids>  (831) 
[107, 7]

>  <energy_score>  (831) 
-26.367812655524205

>  <distance_score>  (831) 
8.318392278517404

>  <path>  (831) 
/opt/xchem-fragalysis-2/maxwin/BulkDock/SCRATCH/511022/C45286-P107/C45286-P107.minimised.mol

>  <scratch_subdir>  (831) 
/opt/xchem-fragalysis-2/maxwin/BulkDock/SCRATCH/511022/C45286-P107

>  <fragmenstein_runtime>  (831) 
15.047114849090576

>  <fragmenstein_outcome>  (831) 
too moved

>  <fragmenstein_mode>  (831) 
expansion

>  <fragmenstein_error>  (831) 


$$$$
C45286-P7
     RDKit          3D

 40 42  0  0  0  0  0  0  0  0999 V2000
  -14.9454  -21.5897   33.6990 C   0  0  0  0  0  0  0  0  0  0  0  0
  -14.6653  -20.2559   34.3404 C   0  0  0  0  0  0  0  0  0  0  0  0
  -13.2202  -19.9072   34.5736 C   0  0  0  0  0  0  0  0  0  0  0  0
  -12.9838  -18.6158   34.8492 C   0  0  0  0  0  0  0  0  0  0  0  0
  -14.0573  -17.7603   35.0288 N   0  0  0  0  0  0  0  0  0  0  0  0
  -14.1379  -16.3805   35.0335 C   0  0  0  0  0  0  0  0  0  0  0  0
  -15.4062  -16.0552   35.4995 C   0  0  0  0  0  0  0  0  0  0  0  0
  -16.2140  -14.7622   35.7625 C   0  0  0  0  0  0  0  0  0  0  0  0
  -15.6022  -13.4334   35.9066 N   0  0  0  0  0  0  0  0  0  0  0  0
  -16.2126  -12.1109   36.1538 C   0  0  0  0  0  0  0  0  0  0  0  0
  -17.3546  -11.8067   36.3770 O   0  0  0  0  0  0  0  0  0  0  0  0
  -15.1371  -10.9146   36.2370 C   0  0  0  0  0  0  0  0  0  0  0  0
  -14.0280  -11.0523   35.1809 C   0  0  0  0  0  0  0  0  0  0  0  0
  -14.5140  -10.9796   37.6487 C   0  0  0  0  0  0  0  0  0  0  0  0
  -15.7673   -9.4947   36.0666 C   0  0  0  0  0  0  0  0  0  0  0  0
  -15.8582   -8.4418   37.0355 C   0  0  0  0  0  0  0  0  0  0  0  0
  -16.3261   -7.3436   36.3592 C   0  0  0  0  0  0  0  0  0  0  0  0
  -16.4918   -7.7555   35.0742 N   0  0  0  0  0  0  0  0  0  0  0  0
  -16.1703   -9.0452   34.8638 N   0  0  0  0  0  0  0  0  0  0  0  0
  -16.1369  -17.2542   35.5168 N   0  0  0  0  0  0  0  0  0  0  0  0
  -15.3586  -18.2233   35.0805 C   0  0  0  0  0  0  0  0  0  0  0  0
  -15.6672  -19.4643   34.6009 N   0  0  0  0  0  0  0  0  0  0  0  0
  -14.1252  -22.2814   33.8988 H   0  0  0  0  0  0  0  0  0  0  0  0
  -15.0701  -21.4428   32.6233 H   0  0  0  0  0  0  0  0  0  0  0  0
  -15.8656  -22.0127   34.1122 H   0  0  0  0  0  0  0  0  0  0  0  0
  -12.4600  -20.6518   34.3994 H   0  0  0  0  0  0  0  0  0  0  0  0
  -11.9916  -18.1908   34.9126 H   0  0  0  0  0  0  0  0  0  0  0  0
  -13.3002  -15.8115   34.6599 H   0  0  0  0  0  0  0  0  0  0  0  0
  -16.9204  -14.6274   34.9497 H   0  0  0  0  0  0  0  0  0  0  0  0
  -16.8105  -14.9178   36.6691 H   0  0  0  0  0  0  0  0  0  0  0  0
  -14.6314  -13.3098   35.6731 H   0  0  0  0  0  0  0  0  0  0  0  0
  -13.3372  -11.8581   35.4256 H   0  0  0  0  0  0  0  0  0  0  0  0
  -13.4235  -10.1419   35.1110 H   0  0  0  0  0  0  0  0  0  0  0  0
  -14.4478  -11.2541   34.1893 H   0  0  0  0  0  0  0  0  0  0  0  0
  -14.0863  -11.9479   37.8693 H   0  0  0  0  0  0  0  0  0  0  0  0
  -15.2708  -10.8114   38.4248 H   0  0  0  0  0  0  0  0  0  0  0  0
  -13.7211  -10.2332   37.7774 H   0  0  0  0  0  0  0  0  0  0  0  0
  -15.5914   -8.4768   38.0824 H   0  0  0  0  0  0  0  0  0  0  0  0
  -16.5396   -6.3309   36.6675 H   0  0  0  0  0  0  0  0  0  0  0  0
  -16.8011   -7.2066   34.2809 H   0  0  0  0  0  0  0  0  0  0  0  0
  1  2  1  0
  2  3  1  0
  3  4  2  0
  4  5  1  0
  5  6  1  0
  6  7  2  0
  7  8  1  0
  8  9  1  0
  9 10  1  0
 10 11  2  0
 10 12  1  0
 12 13  1  0
 12 14  1  0
 12 15  1  0
 15 16  1  0
 16 17  2  0
 17 18  1  0
 18 19  1  0
  7 20  1  0
 20 21  2  0
 21 22  1  0
 22  2  2  0
 21  5  1  0
 19 15  2  0
  1 23  1  0
  1 24  1  0
  1 25  1  0
  3 26  1  0
  4 27  1  0
  6 28  1  0
  8 29  1  0
  8 30  1  0
  9 31  1  0
 13 32  1  0
 13 33  1  0
 13 34  1  0
 14 35  1  0
 14 36  1  0
 14 37  1  0
 16 38  1  0
 17 39  1  0
 18 40  1  0
M  END
>  <Energy>  (832) 
86.162321750207681

>  <compound_id>  (832) 
45286

>  <target_id>  (832) 
1

>  <reference_id>  (832) 
7

>  <inspiration_ids>  (832) 
[107, 7]

>  <energy_score>  (832) 
-12.990085861711634

>  <distance_score>  (832) 
8.202200284794488

>  <path>  (832) 
/opt/xchem-fragalysis-2/maxwin/BulkDock/SCRATCH/511022/C45286-P7/C45286-P7.minimised.mol

>  <scratch_subdir>  (832) 
/opt/xchem-fragalysis-2/maxwin/BulkDock/SCRATCH/511022/C45286-P7

>  <fragmenstein_runtime>  (832) 
10.312134504318237

>  <fragmenstein_outcome>  (832) 
too moved

>  <fragmenstein_mode>  (832) 
expansion

>  <fragmenstein_error>  (832) 


$$$$
C41380-P107
     RDKit          3D

 32 34  0  0  0  0  0  0  0  0999 V2000
  -14.5757  -22.0543   32.7906 C   0  0  0  0  0  0  0  0  0  0  0  0
  -14.2462  -20.8387   33.6288 C   0  0  0  0  0  0  0  0  0  0  0  0
  -12.8067  -20.6519   34.0095 C   0  0  0  0  0  0  0  0  0  0  0  0
  -12.5261  -19.5140   34.6642 C   0  0  0  0  0  0  0  0  0  0  0  0
  -13.5362  -18.6254   34.9863 N   0  0  0  0  0  0  0  0  0  0  0  0
  -13.4930  -17.4087   35.6411 C   0  0  0  0  0  0  0  0  0  0  0  0
  -14.7931  -16.9378   35.6877 C   0  0  0  0  0  0  0  0  0  0  0  0
  -15.4416  -15.7492   36.4189 C   0  0  0  0  0  0  0  0  0  0  0  0
  -14.8832  -14.3574   36.1287 N   0  0  0  0  0  0  0  0  0  0  0  0
  -16.0165  -13.1288   36.6075 S   0  0  0  0  0  0  0  0  0  0  0  0
  -16.7818  -13.6558   37.7186 O   0  0  0  0  0  0  0  0  0  0  0  0
  -16.6536  -12.6954   35.3826 O   0  0  0  0  0  0  0  0  0  0  0  0
  -15.4167  -11.5755   37.2873 C   0  0  0  0  0  0  0  0  0  0  0  0
  -16.0665  -10.6220   38.0691 C   0  0  0  0  0  0  0  0  0  0  0  0
  -15.1293   -9.6139   38.3405 C   0  0  0  0  0  0  0  0  0  0  0  0
  -13.9647   -9.8484   37.7388 N   0  0  0  0  0  0  0  0  0  0  0  0
  -14.1686  -11.0448   37.1130 N   0  0  0  0  0  0  0  0  0  0  0  0
  -15.6070  -17.8678   35.0347 N   0  0  0  0  0  0  0  0  0  0  0  0
  -14.8548  -18.8779   34.6420 C   0  0  0  0  0  0  0  0  0  0  0  0
  -15.1975  -19.9906   33.9150 N   0  0  0  0  0  0  0  0  0  0  0  0
  -14.9199  -21.7279   31.8055 H   0  0  0  0  0  0  0  0  0  0  0  0
  -15.3753  -22.6165   33.2813 H   0  0  0  0  0  0  0  0  0  0  0  0
  -13.7075  -22.7066   32.6691 H   0  0  0  0  0  0  0  0  0  0  0  0
  -12.0769  -21.3931   33.7219 H   0  0  0  0  0  0  0  0  0  0  0  0
  -11.5347  -19.2163   34.9526 H   0  0  0  0  0  0  0  0  0  0  0  0
  -12.5674  -17.0195   36.0357 H   0  0  0  0  0  0  0  0  0  0  0  0
  -15.3410  -15.9315   37.4953 H   0  0  0  0  0  0  0  0  0  0  0  0
  -16.5051  -15.7662   36.1603 H   0  0  0  0  0  0  0  0  0  0  0  0
  -14.8002  -14.2576   35.1114 H   0  0  0  0  0  0  0  0  0  0  0  0
  -17.0881  -10.6946   38.4162 H   0  0  0  0  0  0  0  0  0  0  0  0
  -15.2490   -8.7220   38.9421 H   0  0  0  0  0  0  0  0  0  0  0  0
  -13.3769  -11.4901   36.6496 H   0  0  0  0  0  0  0  0  0  0  0  0
  1  2  1  0
  2  3  1  0
  3  4  2  0
  4  5  1  0
  5  6  1  0
  6  7  2  0
  7  8  1  0
  8  9  1  0
  9 10  1  0
 10 11  2  0
 10 12  2  0
 10 13  1  0
 13 14  2  0
 14 15  1  0
 15 16  2  0
 16 17  1  0
  7 18  1  0
 18 19  2  0
 19 20  1  0
 20  2  2  0
 19  5  1  0
 17 13  1  0
  1 21  1  0
  1 22  1  0
  1 23  1  0
  3 24  1  0
  4 25  1  0
  6 26  1  0
  8 27  1  0
  8 28  1  0
  9 29  1  0
 14 30  1  0
 15 31  1  0
 17 32  1  0
M  END
>  <Energy>  (833) 
-56.644556132030722

>  <compound_id>  (833) 
41380

>  <target_id>  (833) 
1

>  <reference_id>  (833) 
107

>  <inspiration_ids>  (833) 
[107, 7]

>  <energy_score>  (833) 
-24.191429656449262

>  <distance_score>  (833) 
8.35053101648624

>  <path>  (833) 
/opt/xchem-fragalysis-2/maxwin/BulkDock/SCRATCH/511022/C41380-P107/C41380-P107.minimised.mol

>  <scratch_subdir>  (833) 
/opt/xchem-fragalysis-2/maxwin/BulkDock/SCRATCH/511022/C41380-P107

>  <fragmenstein_runtime>  (833) 
9.966835737228394

>  <fragmenstein_outcome>  (833) 
too moved

>  <fragmenstein_mode>  (833) 
expansion

>  <fragmenstein_error>  (833) 


$$$$
C41380-P7
     RDKit          3D

 32 34  0  0  0  0  0  0  0  0999 V2000
  -16.2360  -22.1810   32.7054 C   0  0  0  0  0  0  0  0  0  0  0  0
  -15.4528  -21.1647   33.4955 C   0  0  0  0  0  0  0  0  0  0  0  0
  -14.0255  -21.4654   33.8234 C   0  0  0  0  0  0  0  0  0  0  0  0
  -13.3396  -20.4740   34.4077 C   0  0  0  0  0  0  0  0  0  0  0  0
  -13.9837  -19.2945   34.7323 N   0  0  0  0  0  0  0  0  0  0  0  0
  -13.4735  -18.0889   35.1643 C   0  0  0  0  0  0  0  0  0  0  0  0
  -14.4909  -17.1721   34.9543 C   0  0  0  0  0  0  0  0  0  0  0  0
  -14.3935  -15.7001   34.6318 C   0  0  0  0  0  0  0  0  0  0  0  0
  -15.2117  -14.7895   35.5327 N   0  0  0  0  0  0  0  0  0  0  0  0
  -15.3451  -13.1986   34.8773 S   0  0  0  0  0  0  0  0  0  0  0  0
  -14.1729  -13.0324   34.0596 O   0  0  0  0  0  0  0  0  0  0  0  0
  -16.6908  -13.0398   34.3896 O   0  0  0  0  0  0  0  0  0  0  0  0
  -15.1345  -11.8172   35.9784 C   0  0  0  0  0  0  0  0  0  0  0  0
  -15.4605  -11.4509   37.2715 C   0  0  0  0  0  0  0  0  0  0  0  0
  -14.9649  -10.1364   37.4371 C   0  0  0  0  0  0  0  0  0  0  0  0
  -14.3919   -9.6702   36.3288 N   0  0  0  0  0  0  0  0  0  0  0  0
  -14.4972  -10.7022   35.4706 N   0  0  0  0  0  0  0  0  0  0  0  0
  -15.6506  -17.8466   34.6387 N   0  0  0  0  0  0  0  0  0  0  0  0
  -15.3303  -19.1092   34.4558 C   0  0  0  0  0  0  0  0  0  0  0  0
  -16.0622  -20.0588   33.8108 N   0  0  0  0  0  0  0  0  0  0  0  0
  -15.9246  -22.1544   31.6587 H   0  0  0  0  0  0  0  0  0  0  0  0
  -17.3036  -21.9406   32.7456 H   0  0  0  0  0  0  0  0  0  0  0  0
  -16.1065  -23.1740   33.1383 H   0  0  0  0  0  0  0  0  0  0  0  0
  -13.6007  -22.4392   33.6522 H   0  0  0  0  0  0  0  0  0  0  0  0
  -12.3050  -20.5563   34.6832 H   0  0  0  0  0  0  0  0  0  0  0  0
  -12.4141  -17.9642   35.3420 H   0  0  0  0  0  0  0  0  0  0  0  0
  -14.7351  -15.5724   33.6207 H   0  0  0  0  0  0  0  0  0  0  0  0
  -13.3364  -15.4245   34.5793 H   0  0  0  0  0  0  0  0  0  0  0  0
  -16.1672  -15.1703   35.5975 H   0  0  0  0  0  0  0  0  0  0  0  0
  -15.9839  -12.0528   38.0002 H   0  0  0  0  0  0  0  0  0  0  0  0
  -15.0086   -9.5058   38.3164 H   0  0  0  0  0  0  0  0  0  0  0  0
  -14.1126  -10.6084   34.5341 H   0  0  0  0  0  0  0  0  0  0  0  0
  1  2  1  0
  2  3  1  0
  3  4  2  0
  4  5  1  0
  5  6  1  0
  6  7  2  0
  7  8  1  0
  8  9  1  0
  9 10  1  0
 10 11  2  0
 10 12  2  0
 10 13  1  0
 13 14  2  0
 14 15  1  0
 15 16  2  0
 16 17  1  0
  7 18  1  0
 18 19  2  0
 19 20  1  0
 20  2  2  0
 19  5  1  0
 17 13  1  0
  1 21  1  0
  1 22  1  0
  1 23  1  0
  3 24  1  0
  4 25  1  0
  6 26  1  0
  8 27  1  0
  8 28  1  0
  9 29  1  0
 14 30  1  0
 15 31  1  0
 17 32  1  0
M  END
>  <Energy>  (834) 
-57.166250742030151

>  <compound_id>  (834) 
41380

>  <target_id>  (834) 
1

>  <reference_id>  (834) 
7

>  <inspiration_ids>  (834) 
[107, 7]

>  <energy_score>  (834) 
-24.713124266447913

>  <distance_score>  (834) 
8.380715762650881

>  <path>  (834) 
/opt/xchem-fragalysis-2/maxwin/BulkDock/SCRATCH/511022/C41380-P7/C41380-P7.minimised.mol

>  <scratch_subdir>  (834) 
/opt/xchem-fragalysis-2/maxwin/BulkDock/SCRATCH/511022/C41380-P7

>  <fragmenstein_runtime>  (834) 
8.368398666381836

>  <fragmenstein_outcome>  (834) 
too moved

>  <fragmenstein_mode>  (834) 
expansion

>  <fragmenstein_error>  (834) 


$$$$
C48977-P107
     RDKit          3D

 41 44  0  0  0  0  0  0  0  0999 V2000
  -12.6601  -21.4239   33.3561 C   0  0  0  0  0  0  0  0  0  0  0  0
  -13.5743  -20.4050   34.0249 C   0  0  0  0  0  0  0  0  0  0  0  0
  -15.0459  -20.6148   33.8054 C   0  0  0  0  0  0  0  0  0  0  0  0
  -15.8381  -19.6333   34.2589 C   0  0  0  0  0  0  0  0  0  0  0  0
  -15.2835  -18.5383   34.9170 N   0  0  0  0  0  0  0  0  0  0  0  0
  -15.8983  -17.4262   35.4484 C   0  0  0  0  0  0  0  0  0  0  0  0
  -14.9189  -16.6897   36.1024 C   0  0  0  0  0  0  0  0  0  0  0  0
  -15.1417  -15.7003   37.2506 C   0  0  0  0  0  0  0  0  0  0  0  0
  -15.1121  -14.2269   37.1665 N   0  0  0  0  0  0  0  0  0  0  0  0
  -16.0962  -13.2316   37.5590 C   0  0  0  0  0  0  0  0  0  0  0  0
  -17.2111  -13.3623   37.9735 O   0  0  0  0  0  0  0  0  0  0  0  0
  -15.6382  -11.7858   37.5560 C   0  0  0  0  0  0  0  0  0  0  0  0
  -14.3953  -11.2375   37.3039 N   0  0  0  0  0  0  0  0  0  0  0  0
  -14.2155   -9.9550   37.7236 N   0  0  0  0  0  0  0  0  0  0  0  0
  -15.4225   -9.6069   38.1523 C   0  0  0  0  0  0  0  0  0  0  0  0
  -16.3559  -10.6578   37.9960 C   0  0  0  0  0  0  0  0  0  0  0  0
  -17.7787  -10.5018   38.4165 C   0  0  0  0  0  0  0  0  0  0  0  0
  -18.1609   -9.0277   38.6291 C   0  0  0  0  0  0  0  0  0  0  0  0
  -17.0946   -8.2739   39.4372 C   0  0  0  0  0  0  0  0  0  0  0  0
  -15.7409   -8.2639   38.7115 C   0  0  0  0  0  0  0  0  0  0  0  0
  -13.6898  -17.3242   35.8722 N   0  0  0  0  0  0  0  0  0  0  0  0
  -13.9185  -18.4234   35.1545 C   0  0  0  0  0  0  0  0  0  0  0  0
  -13.0615  -19.3888   34.6739 N   0  0  0  0  0  0  0  0  0  0  0  0
  -12.3273  -22.1718   34.0746 H   0  0  0  0  0  0  0  0  0  0  0  0
  -13.1785  -21.9340   32.5391 H   0  0  0  0  0  0  0  0  0  0  0  0
  -11.7866  -20.9153   32.9415 H   0  0  0  0  0  0  0  0  0  0  0  0
  -15.4004  -21.5088   33.3072 H   0  0  0  0  0  0  0  0  0  0  0  0
  -16.9160  -19.6578   34.1576 H   0  0  0  0  0  0  0  0  0  0  0  0
  -16.9744  -17.3245   35.4436 H   0  0  0  0  0  0  0  0  0  0  0  0
  -14.4039  -15.9495   38.0225 H   0  0  0  0  0  0  0  0  0  0  0  0
  -16.1158  -15.9438   37.6953 H   0  0  0  0  0  0  0  0  0  0  0  0
  -14.2420  -13.7605   36.9417 H   0  0  0  0  0  0  0  0  0  0  0  0
  -13.5735  -11.7173   36.9473 H   0  0  0  0  0  0  0  0  0  0  0  0
  -18.4466  -10.9412   37.6672 H   0  0  0  0  0  0  0  0  0  0  0  0
  -17.9308  -11.0485   39.3554 H   0  0  0  0  0  0  0  0  0  0  0  0
  -19.1274   -8.9726   39.1427 H   0  0  0  0  0  0  0  0  0  0  0  0
  -18.2868   -8.5366   37.6555 H   0  0  0  0  0  0  0  0  0  0  0  0
  -16.9828   -8.7537   40.4180 H   0  0  0  0  0  0  0  0  0  0  0  0
  -17.4197   -7.2435   39.6197 H   0  0  0  0  0  0  0  0  0  0  0  0
  -15.7816   -7.5367   37.8921 H   0  0  0  0  0  0  0  0  0  0  0  0
  -14.9564   -7.9373   39.4032 H   0  0  0  0  0  0  0  0  0  0  0  0
  1  2  1  0
  2  3  1  0
  3  4  2  0
  4  5  1  0
  5  6  1  0
  6  7  2  0
  7  8  1  0
  8  9  1  0
  9 10  1  0
 10 11  2  0
 10 12  1  0
 12 13  1  0
 13 14  1  0
 14 15  2  0
 15 16  1  0
 16 17  1  0
 17 18  1  0
 18 19  1  0
 19 20  1  0
  7 21  1  0
 21 22  2  0
 22 23  1  0
 23  2  2  0
 22  5  1  0
 16 12  2  0
 20 15  1  0
  1 24  1  0
  1 25  1  0
  1 26  1  0
  3 27  1  0
  4 28  1  0
  6 29  1  0
  8 30  1  0
  8 31  1  0
  9 32  1  0
 13 33  1  0
 17 34  1  0
 17 35  1  0
 18 36  1  0
 18 37  1  0
 19 38  1  0
 19 39  1  0
 20 40  1  0
 20 41  1  0
M  END
>  <Energy>  (835) 
32.543726291071707

>  <compound_id>  (835) 
48977

>  <target_id>  (835) 
1

>  <reference_id>  (835) 
107

>  <inspiration_ids>  (835) 
[107, 7]

>  <energy_score>  (835) 
-9.89586957342945

>  <distance_score>  (835) 
8.73292822006405

>  <path>  (835) 
/opt/xchem-fragalysis-2/maxwin/BulkDock/SCRATCH/511022/C48977-P107/C48977-P107.minimised.mol

>  <scratch_subdir>  (835) 
/opt/xchem-fragalysis-2/maxwin/BulkDock/SCRATCH/511022/C48977-P107

>  <fragmenstein_runtime>  (835) 
20.025078296661377

>  <fragmenstein_outcome>  (835) 
too moved

>  <fragmenstein_mode>  (835) 
expansion

>  <fragmenstein_error>  (835) 


$$$$
C48977-P7
     RDKit          3D

 41 44  0  0  0  0  0  0  0  0999 V2000
  -12.9981  -21.6684   33.7129 C   0  0  0  0  0  0  0  0  0  0  0  0
  -14.2173  -20.8310   33.9700 C   0  0  0  0  0  0  0  0  0  0  0  0
  -15.5295  -21.3826   33.5181 C   0  0  0  0  0  0  0  0  0  0  0  0
  -16.5749  -20.5647   33.6913 C   0  0  0  0  0  0  0  0  0  0  0  0
  -16.3773  -19.3149   34.2621 N   0  0  0  0  0  0  0  0  0  0  0  0
  -17.2593  -18.2878   34.4636 C   0  0  0  0  0  0  0  0  0  0  0  0
  -16.5332  -17.2290   34.9941 C   0  0  0  0  0  0  0  0  0  0  0  0
  -17.1232  -15.9512   35.5481 C   0  0  0  0  0  0  0  0  0  0  0  0
  -16.4207  -14.6846   35.4220 N   0  0  0  0  0  0  0  0  0  0  0  0
  -16.5172  -13.6486   34.4331 C   0  0  0  0  0  0  0  0  0  0  0  0
  -17.1424  -13.5987   33.4159 O   0  0  0  0  0  0  0  0  0  0  0  0
  -15.7800  -12.4281   34.8333 C   0  0  0  0  0  0  0  0  0  0  0  0
  -15.1086  -11.6089   33.9396 N   0  0  0  0  0  0  0  0  0  0  0  0
  -14.5320  -10.5172   34.5020 N   0  0  0  0  0  0  0  0  0  0  0  0
  -14.9892  -10.5336   35.7503 C   0  0  0  0  0  0  0  0  0  0  0  0
  -15.7675  -11.6875   36.0164 C   0  0  0  0  0  0  0  0  0  0  0  0
  -16.4598  -11.8827   37.3210 C   0  0  0  0  0  0  0  0  0  0  0  0
  -16.5563  -10.5783   38.1265 C   0  0  0  0  0  0  0  0  0  0  0  0
  -15.2228   -9.8193   38.1331 C   0  0  0  0  0  0  0  0  0  0  0  0
  -14.7957   -9.4179   36.7137 C   0  0  0  0  0  0  0  0  0  0  0  0
  -15.2093  -17.6097   35.1008 N   0  0  0  0  0  0  0  0  0  0  0  0
  -15.1345  -18.8706   34.6934 C   0  0  0  0  0  0  0  0  0  0  0  0
  -14.0425  -19.6653   34.5316 N   0  0  0  0  0  0  0  0  0  0  0  0
  -12.6591  -21.5419   32.6847 H   0  0  0  0  0  0  0  0  0  0  0  0
  -12.2182  -21.3161   34.3765 H   0  0  0  0  0  0  0  0  0  0  0  0
  -13.1858  -22.7141   33.9579 H   0  0  0  0  0  0  0  0  0  0  0  0
  -15.5911  -22.3754   33.0953 H   0  0  0  0  0  0  0  0  0  0  0  0
  -17.5834  -20.8332   33.4045 H   0  0  0  0  0  0  0  0  0  0  0  0
  -18.3145  -18.3958   34.2547 H   0  0  0  0  0  0  0  0  0  0  0  0
  -17.2899  -16.0977   36.6214 H   0  0  0  0  0  0  0  0  0  0  0  0
  -18.1055  -15.7999   35.0842 H   0  0  0  0  0  0  0  0  0  0  0  0
  -15.7331  -14.4184   36.1106 H   0  0  0  0  0  0  0  0  0  0  0  0
  -15.0082  -11.7433   32.9332 H   0  0  0  0  0  0  0  0  0  0  0  0
  -15.9071  -12.6249   37.9079 H   0  0  0  0  0  0  0  0  0  0  0  0
  -17.4673  -12.2833   37.1607 H   0  0  0  0  0  0  0  0  0  0  0  0
  -16.8628  -10.8057   39.1538 H   0  0  0  0  0  0  0  0  0  0  0  0
  -17.3339   -9.9353   37.6947 H   0  0  0  0  0  0  0  0  0  0  0  0
  -14.4500  -10.4561   38.5829 H   0  0  0  0  0  0  0  0  0  0  0  0
  -15.3025   -8.9229   38.7583 H   0  0  0  0  0  0  0  0  0  0  0  0
  -13.7537   -9.1052   36.7341 H   0  0  0  0  0  0  0  0  0  0  0  0
  -15.3963   -8.5607   36.3867 H   0  0  0  0  0  0  0  0  0  0  0  0
  1  2  1  0
  2  3  1  0
  3  4  2  0
  4  5  1  0
  5  6  1  0
  6  7  2  0
  7  8  1  0
  8  9  1  0
  9 10  1  0
 10 11  2  0
 10 12  1  0
 12 13  1  0
 13 14  1  0
 14 15  2  0
 15 16  1  0
 16 17  1  0
 17 18  1  0
 18 19  1  0
 19 20  1  0
  7 21  1  0
 21 22  2  0
 22 23  1  0
 23  2  2  0
 22  5  1  0
 16 12  2  0
 20 15  1  0
  1 24  1  0
  1 25  1  0
  1 26  1  0
  3 27  1  0
  4 28  1  0
  6 29  1  0
  8 30  1  0
  8 31  1  0
  9 32  1  0
 13 33  1  0
 17 34  1  0
 17 35  1  0
 18 36  1  0
 18 37  1  0
 19 38  1  0
 19 39  1  0
 20 40  1  0
 20 41  1  0
M  END
>  <Energy>  (836) 
14.109784232164976

>  <compound_id>  (836) 
48977

>  <target_id>  (836) 
1

>  <reference_id>  (836) 
7

>  <inspiration_ids>  (836) 
[107, 7]

>  <energy_score>  (836) 
-28.32981163233802

>  <distance_score>  (836) 
9.087370459697539

>  <path>  (836) 
/opt/xchem-fragalysis-2/maxwin/BulkDock/SCRATCH/511022/C48977-P7/C48977-P7.minimised.mol

>  <scratch_subdir>  (836) 
/opt/xchem-fragalysis-2/maxwin/BulkDock/SCRATCH/511022/C48977-P7

>  <fragmenstein_runtime>  (836) 
17.639309883117676

>  <fragmenstein_outcome>  (836) 
too moved

>  <fragmenstein_mode>  (836) 
expansion

>  <fragmenstein_error>  (836) 


$$$$
C41381-P107
     RDKit          3D

 34 36  0  0  0  0  0  0  0  0999 V2000
  -12.3010  -22.5606   32.5312 C   0  0  0  0  0  0  0  0  0  0  0  0
  -13.1965  -21.5662   33.2379 C   0  0  0  0  0  0  0  0  0  0  0  0
  -14.6742  -21.7598   33.0783 C   0  0  0  0  0  0  0  0  0  0  0  0
  -15.4470  -20.8179   33.6391 C   0  0  0  0  0  0  0  0  0  0  0  0
  -14.8596  -19.7639   34.3299 N   0  0  0  0  0  0  0  0  0  0  0  0
  -15.4341  -18.6857   34.9744 C   0  0  0  0  0  0  0  0  0  0  0  0
  -14.3943  -17.9442   35.5112 C   0  0  0  0  0  0  0  0  0  0  0  0
  -14.4119  -16.8293   36.5387 C   0  0  0  0  0  0  0  0  0  0  0  0
  -14.7635  -15.4685   36.1320 N   0  0  0  0  0  0  0  0  0  0  0  0
  -15.1964  -14.3116   36.9250 C   0  0  0  0  0  0  0  0  0  0  0  0
  -15.4467  -14.2165   38.0956 O   0  0  0  0  0  0  0  0  0  0  0  0
  -15.3243  -13.0201   36.0353 C   0  0  0  0  0  0  0  0  0  0  0  0
  -15.3857  -11.6981   36.8183 C   0  0  0  0  0  0  0  0  0  0  0  0
  -16.4298  -10.8980   37.2453 C   0  0  0  0  0  0  0  0  0  0  0  0
  -15.8319   -9.8138   37.9248 C   0  0  0  0  0  0  0  0  0  0  0  0
  -14.4994   -9.8661   37.8902 N   0  0  0  0  0  0  0  0  0  0  0  0
  -14.2569  -11.0326   37.2465 N   0  0  0  0  0  0  0  0  0  0  0  0
  -13.1976  -18.5591   35.1632 N   0  0  0  0  0  0  0  0  0  0  0  0
  -13.4802  -19.6559   34.4793 C   0  0  0  0  0  0  0  0  0  0  0  0
  -12.6483  -20.5903   33.9109 N   0  0  0  0  0  0  0  0  0  0  0  0
  -11.8583  -23.2307   33.2729 H   0  0  0  0  0  0  0  0  0  0  0  0
  -12.8605  -23.1536   31.8032 H   0  0  0  0  0  0  0  0  0  0  0  0
  -11.5031  -22.0252   32.0082 H   0  0  0  0  0  0  0  0  0  0  0  0
  -15.0566  -22.6206   32.5452 H   0  0  0  0  0  0  0  0  0  0  0  0
  -16.5280  -20.8488   33.5956 H   0  0  0  0  0  0  0  0  0  0  0  0
  -16.5066  -18.5857   35.0609 H   0  0  0  0  0  0  0  0  0  0  0  0
  -15.0936  -17.1027   37.3526 H   0  0  0  0  0  0  0  0  0  0  0  0
  -13.4154  -16.7560   36.9896 H   0  0  0  0  0  0  0  0  0  0  0  0
  -14.5638  -15.1658   35.1848 H   0  0  0  0  0  0  0  0  0  0  0  0
  -16.2444  -13.1227   35.4480 H   0  0  0  0  0  0  0  0  0  0  0  0
  -14.4814  -12.9782   35.3358 H   0  0  0  0  0  0  0  0  0  0  0  0
  -17.4845  -11.0899   37.1117 H   0  0  0  0  0  0  0  0  0  0  0  0
  -16.3156   -8.9860   38.4260 H   0  0  0  0  0  0  0  0  0  0  0  0
  -13.2939  -11.3531   37.1465 H   0  0  0  0  0  0  0  0  0  0  0  0
  1  2  1  0
  2  3  1  0
  3  4  2  0
  4  5  1  0
  5  6  1  0
  6  7  2  0
  7  8  1  0
  8  9  1  0
  9 10  1  0
 10 11  2  0
 10 12  1  0
 12 13  1  0
 13 14  2  0
 14 15  1  0
 15 16  2  0
 16 17  1  0
  7 18  1  0
 18 19  2  0
 19 20  1  0
 20  2  2  0
 19  5  1  0
 17 13  1  0
  1 21  1  0
  1 22  1  0
  1 23  1  0
  3 24  1  0
  4 25  1  0
  6 26  1  0
  8 27  1  0
  8 28  1  0
  9 29  1  0
 12 30  1  0
 12 31  1  0
 14 32  1  0
 15 33  1  0
 17 34  1  0
M  END
>  <Energy>  (837) 
55.435373234301025

>  <compound_id>  (837) 
41381

>  <target_id>  (837) 
1

>  <reference_id>  (837) 
107

>  <inspiration_ids>  (837) 
[107, 7]

>  <energy_score>  (837) 
-32.385789478241406

>  <distance_score>  (837) 
8.146728747607149

>  <path>  (837) 
/opt/xchem-fragalysis-2/maxwin/BulkDock/SCRATCH/511022/C41381-P107/C41381-P107.minimised.mol

>  <scratch_subdir>  (837) 
/opt/xchem-fragalysis-2/maxwin/BulkDock/SCRATCH/511022/C41381-P107

>  <fragmenstein_runtime>  (837) 
15.972658157348633

>  <fragmenstein_outcome>  (837) 
too moved

>  <fragmenstein_mode>  (837) 
expansion

>  <fragmenstein_error>  (837) 


$$$$
C41381-P7
     RDKit          3D

 34 36  0  0  0  0  0  0  0  0999 V2000
  -12.9633  -18.9088   34.9305 C   0  0  0  0  0  0  0  0  0  0  0  0
  -13.7950  -17.6529   34.8104 C   0  0  0  0  0  0  0  0  0  0  0  0
  -15.2597  -17.7881   35.1070 C   0  0  0  0  0  0  0  0  0  0  0  0
  -15.9626  -16.6447   35.0549 C   0  0  0  0  0  0  0  0  0  0  0  0
  -15.3201  -15.4479   34.7439 N   0  0  0  0  0  0  0  0  0  0  0  0
  -15.7627  -14.1441   34.8154 C   0  0  0  0  0  0  0  0  0  0  0  0
  -14.6705  -13.3056   34.5794 C   0  0  0  0  0  0  0  0  0  0  0  0
  -14.7164  -11.7797   34.3394 C   0  0  0  0  0  0  0  0  0  0  0  0
  -13.9957  -10.6574   35.0296 N   0  0  0  0  0  0  0  0  0  0  0  0
  -14.2952   -9.2253   35.0947 C   0  0  0  0  0  0  0  0  0  0  0  0
  -15.2409   -8.6042   34.6750 O   0  0  0  0  0  0  0  0  0  0  0  0
  -13.2250   -8.1547   36.0239 C   0  0  0  0  0  0  0  0  0  0  0  0
  -11.7158   -6.6826   35.5933 C   0  0  0  0  0  0  0  0  0  0  0  0
  -10.8162   -5.4918   35.6974 C   0  0  0  0  0  0  0  0  0  0  0  0
  -10.9797   -4.2279   36.3595 C   0  0  0  0  0  0  0  0  0  0  0  0
  -12.1906   -4.1749   36.7868 N   0  0  0  0  0  0  0  0  0  0  0  0
  -12.6727   -5.1919   36.0693 N   0  0  0  0  0  0  0  0  0  0  0  0
  -13.5762  -14.1382   34.3199 N   0  0  0  0  0  0  0  0  0  0  0  0
  -13.9797  -15.4050   34.4028 C   0  0  0  0  0  0  0  0  0  0  0  0
  -13.2174  -16.5326   34.4879 N   0  0  0  0  0  0  0  0  0  0  0  0
  -12.6210  -18.9881   35.9640 H   0  0  0  0  0  0  0  0  0  0  0  0
  -13.5514  -19.7939   34.6763 H   0  0  0  0  0  0  0  0  0  0  0  0
  -12.0883  -18.8615   34.2837 H   0  0  0  0  0  0  0  0  0  0  0  0
  -15.6744  -18.7485   35.3829 H   0  0  0  0  0  0  0  0  0  0  0  0
  -17.0161  -16.5897   35.2999 H   0  0  0  0  0  0  0  0  0  0  0  0
  -16.8004  -13.9128   35.0091 H   0  0  0  0  0  0  0  0  0  0  0  0
  -14.5657  -11.6142   33.2761 H   0  0  0  0  0  0  0  0  0  0  0  0
  -15.7713  -11.5018   34.4814 H   0  0  0  0  0  0  0  0  0  0  0  0
  -13.1511  -10.8430   35.5604 H   0  0  0  0  0  0  0  0  0  0  0  0
  -14.1371   -7.5598   36.4323 H   0  0  0  0  0  0  0  0  0  0  0  0
  -13.1521   -8.6700   37.0354 H   0  0  0  0  0  0  0  0  0  0  0  0
   -9.8355   -5.6911   35.3626 H   0  0  0  0  0  0  0  0  0  0  0  0
  -10.3129   -3.3980   36.5276 H   0  0  0  0  0  0  0  0  0  0  0  0
  -13.6630   -5.3920   36.1566 H   0  0  0  0  0  0  0  0  0  0  0  0
  1  2  1  0
  2  3  1  0
  3  4  2  0
  4  5  1  0
  5  6  1  0
  6  7  2  0
  7  8  1  0
  8  9  1  0
  9 10  1  0
 10 11  2  0
 10 12  1  0
 12 13  1  0
 13 14  2  0
 14 15  1  0
 15 16  2  0
 16 17  1  0
  7 18  1  0
 18 19  2  0
 19 20  1  0
 20  2  2  0
 19  5  1  0
 17 13  1  0
  1 21  1  0
  1 22  1  0
  1 23  1  0
  3 24  1  0
  4 25  1  0
  6 26  1  0
  8 27  1  0
  8 28  1  0
  9 29  1  0
 12 30  1  0
 12 31  1  0
 14 32  1  0
 15 33  1  0
 17 34  1  0
M  END
>  <Energy>  (838) 
372.58285385399358

>  <compound_id>  (838) 
41381

>  <target_id>  (838) 
1

>  <reference_id>  (838) 
7

>  <inspiration_ids>  (838) 
[107, 7]

>  <energy_score>  (838) 
284.7616911414501

>  <distance_score>  (838) 
8.184962993499013

>  <path>  (838) 
/opt/xchem-fragalysis-2/maxwin/BulkDock/SCRATCH/511022/C41381-P7/C41381-P7.minimised.mol

>  <scratch_subdir>  (838) 
/opt/xchem-fragalysis-2/maxwin/BulkDock/SCRATCH/511022/C41381-P7

>  <fragmenstein_runtime>  (838) 
8.659718990325928

>  <fragmenstein_outcome>  (838) 
too moved

>  <fragmenstein_mode>  (838) 
expansion

>  <fragmenstein_error>  (838) 


$$$$
C45287-P107
     RDKit          3D

 31 33  0  0  0  0  0  0  0  0999 V2000
  -17.6617  -12.7064   37.7184 C   0  0  0  0  0  0  0  0  0  0  0  0
  -16.2825  -12.1438   37.4946 N   0  0  0  0  0  0  0  0  0  0  0  0
  -16.9547  -10.8734   38.0235 C   0  0  0  0  0  0  0  0  0  0  0  0
  -16.0219   -9.6758   38.3177 C   0  0  0  0  0  0  0  0  0  0  0  0
  -16.3840   -8.2967   38.1805 C   0  0  0  0  0  0  0  0  0  0  0  0
  -15.4082   -7.5887   38.8381 C   0  0  0  0  0  0  0  0  0  0  0  0
  -14.5191   -8.5211   39.2868 N   0  0  0  0  0  0  0  0  0  0  0  0
  -14.8625   -9.7827   38.9818 N   0  0  0  0  0  0  0  0  0  0  0  0
  -15.8213  -12.4806   36.1812 C   0  0  0  0  0  0  0  0  0  0  0  0
  -15.9259  -11.8849   35.1399 O   0  0  0  0  0  0  0  0  0  0  0  0
  -15.1991  -13.8580   36.1399 C   0  0  0  0  0  0  0  0  0  0  0  0
  -14.4834  -14.4143   35.0848 C   0  0  0  0  0  0  0  0  0  0  0  0
  -14.1971  -15.7079   35.4361 N   0  0  0  0  0  0  0  0  0  0  0  0
  -13.4650  -16.6911   34.7756 C   0  0  0  0  0  0  0  0  0  0  0  0
  -13.3635  -17.9042   35.3318 C   0  0  0  0  0  0  0  0  0  0  0  0
  -12.5182  -19.2431   34.7323 Cl  0  0  0  0  0  0  0  0  0  0  0  0
  -14.0703  -18.0661   36.6226 C   0  0  0  0  0  0  0  0  0  0  0  0
  -14.7454  -17.1631   37.2601 N   0  0  0  0  0  0  0  0  0  0  0  0
  -14.8034  -15.9369   36.6666 C   0  0  0  0  0  0  0  0  0  0  0  0
  -15.3723  -14.8390   37.1151 N   0  0  0  0  0  0  0  0  0  0  0  0
  -17.6381  -13.7474   37.3669 H   0  0  0  0  0  0  0  0  0  0  0  0
  -18.4552  -12.2696   37.0916 H   0  0  0  0  0  0  0  0  0  0  0  0
  -17.9294  -12.8189   38.7793 H   0  0  0  0  0  0  0  0  0  0  0  0
  -17.4432  -10.9964   39.0057 H   0  0  0  0  0  0  0  0  0  0  0  0
  -17.6443  -10.4735   37.2607 H   0  0  0  0  0  0  0  0  0  0  0  0
  -17.2836   -7.8978   37.7334 H   0  0  0  0  0  0  0  0  0  0  0  0
  -15.2773   -6.5358   39.0414 H   0  0  0  0  0  0  0  0  0  0  0  0
  -13.6618   -8.3744   39.8109 H   0  0  0  0  0  0  0  0  0  0  0  0
  -14.1915  -13.9856   34.1379 H   0  0  0  0  0  0  0  0  0  0  0  0
  -13.0006  -16.4024   33.8430 H   0  0  0  0  0  0  0  0  0  0  0  0
  -14.0008  -19.0526   37.0891 H   0  0  0  0  0  0  0  0  0  0  0  0
  1  2  1  0
  2  3  1  0
  3  4  1  0
  4  5  1  0
  5  6  2  0
  6  7  1  0
  7  8  1  0
  2  9  1  0
  9 10  2  0
  9 11  1  0
 11 12  2  0
 12 13  1  0
 13 14  1  0
 14 15  2  0
 15 16  1  0
 15 17  1  0
 17 18  2  0
 18 19  1  0
 19 20  2  0
  8  4  2  0
 20 11  1  0
 19 13  1  0
  1 21  1  0
  1 22  1  0
  1 23  1  0
  3 24  1  0
  3 25  1  0
  5 26  1  0
  6 27  1  0
  7 28  1  0
 12 29  1  0
 14 30  1  0
 17 31  1  0
M  END
>  <Energy>  (839) 
130.59675911108744

>  <compound_id>  (839) 
45287

>  <target_id>  (839) 
1

>  <reference_id>  (839) 
107

>  <inspiration_ids>  (839) 
[107, 7]

>  <energy_score>  (839) 
35.26666691755247

>  <distance_score>  (839) 
9.638255569809107

>  <path>  (839) 
/opt/xchem-fragalysis-2/maxwin/BulkDock/SCRATCH/511022/C45287-P107/C45287-P107.minimised.mol

>  <scratch_subdir>  (839) 
/opt/xchem-fragalysis-2/maxwin/BulkDock/SCRATCH/511022/C45287-P107

>  <fragmenstein_runtime>  (839) 
9.695784091949463

>  <fragmenstein_outcome>  (839) 
too moved

>  <fragmenstein_mode>  (839) 
expansion

>  <fragmenstein_error>  (839) 


$$$$
C45287-P7
     RDKit          3D

 31 33  0  0  0  0  0  0  0  0999 V2000
  -17.8719  -15.0612   36.9765 C   0  0  0  0  0  0  0  0  0  0  0  0
  -16.4394  -14.7695   36.6362 N   0  0  0  0  0  0  0  0  0  0  0  0
  -16.8418  -13.3505   37.1442 C   0  0  0  0  0  0  0  0  0  0  0  0
  -15.7904  -12.2283   36.8809 C   0  0  0  0  0  0  0  0  0  0  0  0
  -15.2621  -11.3010   37.8330 C   0  0  0  0  0  0  0  0  0  0  0  0
  -14.4812  -10.4252   37.1147 C   0  0  0  0  0  0  0  0  0  0  0  0
  -14.5527  -10.8466   35.8220 N   0  0  0  0  0  0  0  0  0  0  0  0
  -15.3809  -11.8968   35.6445 N   0  0  0  0  0  0  0  0  0  0  0  0
  -15.5878  -15.7620   37.2137 C   0  0  0  0  0  0  0  0  0  0  0  0
  -15.0354  -15.7903   38.2823 O   0  0  0  0  0  0  0  0  0  0  0  0
  -15.2703  -16.9066   36.2763 C   0  0  0  0  0  0  0  0  0  0  0  0
  -14.0380  -17.5464   36.2047 C   0  0  0  0  0  0  0  0  0  0  0  0
  -14.1877  -18.5991   35.3435 N   0  0  0  0  0  0  0  0  0  0  0  0
  -13.2663  -19.5437   34.9230 C   0  0  0  0  0  0  0  0  0  0  0  0
  -13.6757  -20.5612   34.1548 C   0  0  0  0  0  0  0  0  0  0  0  0
  -12.6457  -21.7413   33.5079 Cl  0  0  0  0  0  0  0  0  0  0  0  0
  -15.1167  -20.5390   33.7738 C   0  0  0  0  0  0  0  0  0  0  0  0
  -15.9700  -19.6058   34.0944 N   0  0  0  0  0  0  0  0  0  0  0  0
  -15.5158  -18.6182   34.9331 C   0  0  0  0  0  0  0  0  0  0  0  0
  -16.1579  -17.5772   35.4366 N   0  0  0  0  0  0  0  0  0  0  0  0
  -18.0502  -15.0989   38.0632 H   0  0  0  0  0  0  0  0  0  0  0  0
  -18.6436  -14.4895   36.4507 H   0  0  0  0  0  0  0  0  0  0  0  0
  -18.0474  -16.1001   36.6631 H   0  0  0  0  0  0  0  0  0  0  0  0
  -16.9608  -13.3680   38.2395 H   0  0  0  0  0  0  0  0  0  0  0  0
  -17.7170  -12.9173   36.6321 H   0  0  0  0  0  0  0  0  0  0  0  0
  -15.4329  -11.2859   38.9005 H   0  0  0  0  0  0  0  0  0  0  0  0
  -13.8751   -9.5820   37.4098 H   0  0  0  0  0  0  0  0  0  0  0  0
  -14.0802  -10.4669   35.0075 H   0  0  0  0  0  0  0  0  0  0  0  0
  -13.1080  -17.3550   36.7212 H   0  0  0  0  0  0  0  0  0  0  0  0
  -12.2504  -19.4147   35.2575 H   0  0  0  0  0  0  0  0  0  0  0  0
  -15.4563  -21.3709   33.1328 H   0  0  0  0  0  0  0  0  0  0  0  0
  1  2  1  0
  2  3  1  0
  3  4  1  0
  4  5  1  0
  5  6  2  0
  6  7  1  0
  7  8  1  0
  2  9  1  0
  9 10  2  0
  9 11  1  0
 11 12  2  0
 12 13  1  0
 13 14  1  0
 14 15  2  0
 15 16  1  0
 15 17  1  0
 17 18  2  0
 18 19  1  0
 19 20  2  0
  8  4  2  0
 20 11  1  0
 19 13  1  0
  1 21  1  0
  1 22  1  0
  1 23  1  0
  3 24  1  0
  3 25  1  0
  5 26  1  0
  6 27  1  0
  7 28  1  0
 12 29  1  0
 14 30  1  0
 17 31  1  0
M  END
>  <Energy>  (840) 
131.96547436943291

>  <compound_id>  (840) 
45287

>  <target_id>  (840) 
1

>  <reference_id>  (840) 
7

>  <inspiration_ids>  (840) 
[107, 7]

>  <energy_score>  (840) 
36.63538217589837

>  <distance_score>  (840) 
8.90809239016626

>  <path>  (840) 
/opt/xchem-fragalysis-2/maxwin/BulkDock/SCRATCH/511022/C45287-P7/C45287-P7.minimised.mol

>  <scratch_subdir>  (840) 
/opt/xchem-fragalysis-2/maxwin/BulkDock/SCRATCH/511022/C45287-P7

>  <fragmenstein_runtime>  (840) 
8.62809419631958

>  <fragmenstein_outcome>  (840) 
too moved

>  <fragmenstein_mode>  (840) 
expansion

>  <fragmenstein_error>  (840) 


$$$$
C41380-P107
     RDKit          3D

 32 34  0  0  0  0  0  0  0  0999 V2000
  -14.5757  -22.0543   32.7906 C   0  0  0  0  0  0  0  0  0  0  0  0
  -14.2462  -20.8387   33.6288 C   0  0  0  0  0  0  0  0  0  0  0  0
  -12.8067  -20.6519   34.0095 C   0  0  0  0  0  0  0  0  0  0  0  0
  -12.5261  -19.5140   34.6642 C   0  0  0  0  0  0  0  0  0  0  0  0
  -13.5362  -18.6254   34.9863 N   0  0  0  0  0  0  0  0  0  0  0  0
  -13.4930  -17.4087   35.6411 C   0  0  0  0  0  0  0  0  0  0  0  0
  -14.7931  -16.9378   35.6877 C   0  0  0  0  0  0  0  0  0  0  0  0
  -15.4416  -15.7492   36.4189 C   0  0  0  0  0  0  0  0  0  0  0  0
  -14.8832  -14.3574   36.1287 N   0  0  0  0  0  0  0  0  0  0  0  0
  -16.0165  -13.1288   36.6075 S   0  0  0  0  0  0  0  0  0  0  0  0
  -16.7818  -13.6558   37.7186 O   0  0  0  0  0  0  0  0  0  0  0  0
  -16.6536  -12.6954   35.3826 O   0  0  0  0  0  0  0  0  0  0  0  0
  -15.4167  -11.5755   37.2873 C   0  0  0  0  0  0  0  0  0  0  0  0
  -16.0665  -10.6220   38.0691 C   0  0  0  0  0  0  0  0  0  0  0  0
  -15.1293   -9.6139   38.3405 C   0  0  0  0  0  0  0  0  0  0  0  0
  -13.9647   -9.8484   37.7388 N   0  0  0  0  0  0  0  0  0  0  0  0
  -14.1686  -11.0448   37.1130 N   0  0  0  0  0  0  0  0  0  0  0  0
  -15.6070  -17.8678   35.0347 N   0  0  0  0  0  0  0  0  0  0  0  0
  -14.8548  -18.8779   34.6420 C   0  0  0  0  0  0  0  0  0  0  0  0
  -15.1975  -19.9906   33.9150 N   0  0  0  0  0  0  0  0  0  0  0  0
  -14.9199  -21.7279   31.8055 H   0  0  0  0  0  0  0  0  0  0  0  0
  -15.3753  -22.6165   33.2813 H   0  0  0  0  0  0  0  0  0  0  0  0
  -13.7075  -22.7066   32.6691 H   0  0  0  0  0  0  0  0  0  0  0  0
  -12.0769  -21.3931   33.7219 H   0  0  0  0  0  0  0  0  0  0  0  0
  -11.5347  -19.2163   34.9526 H   0  0  0  0  0  0  0  0  0  0  0  0
  -12.5674  -17.0195   36.0357 H   0  0  0  0  0  0  0  0  0  0  0  0
  -15.3410  -15.9315   37.4953 H   0  0  0  0  0  0  0  0  0  0  0  0
  -16.5051  -15.7662   36.1603 H   0  0  0  0  0  0  0  0  0  0  0  0
  -14.8002  -14.2576   35.1114 H   0  0  0  0  0  0  0  0  0  0  0  0
  -17.0881  -10.6946   38.4162 H   0  0  0  0  0  0  0  0  0  0  0  0
  -15.2490   -8.7220   38.9421 H   0  0  0  0  0  0  0  0  0  0  0  0
  -13.3769  -11.4901   36.6496 H   0  0  0  0  0  0  0  0  0  0  0  0
  1  2  1  0
  2  3  1  0
  3  4  2  0
  4  5  1  0
  5  6  1  0
  6  7  2  0
  7  8  1  0
  8  9  1  0
  9 10  1  0
 10 11  2  0
 10 12  2  0
 10 13  1  0
 13 14  2  0
 14 15  1  0
 15 16  2  0
 16 17  1  0
  7 18  1  0
 18 19  2  0
 19 20  1  0
 20  2  2  0
 19  5  1  0
 17 13  1  0
  1 21  1  0
  1 22  1  0
  1 23  1  0
  3 24  1  0
  4 25  1  0
  6 26  1  0
  8 27  1  0
  8 28  1  0
  9 29  1  0
 14 30  1  0
 15 31  1  0
 17 32  1  0
M  END
>  <Energy>  (841) 
-56.644556132030722

>  <compound_id>  (841) 
41380

>  <target_id>  (841) 
1

>  <reference_id>  (841) 
107

>  <inspiration_ids>  (841) 
[107, 7]

>  <energy_score>  (841) 
-24.191429656449262

>  <distance_score>  (841) 
8.35053101648624

>  <path>  (841) 
/opt/xchem-fragalysis-2/maxwin/BulkDock/SCRATCH/511022/C41380-P107/C41380-P107.minimised.mol

>  <scratch_subdir>  (841) 
/opt/xchem-fragalysis-2/maxwin/BulkDock/SCRATCH/511022/C41380-P107

>  <fragmenstein_runtime>  (841) 
9.644416809082031

>  <fragmenstein_outcome>  (841) 
too moved

>  <fragmenstein_mode>  (841) 
expansion

>  <fragmenstein_error>  (841) 


$$$$
C41380-P7
     RDKit          3D

 32 34  0  0  0  0  0  0  0  0999 V2000
  -16.2360  -22.1810   32.7054 C   0  0  0  0  0  0  0  0  0  0  0  0
  -15.4528  -21.1647   33.4955 C   0  0  0  0  0  0  0  0  0  0  0  0
  -14.0255  -21.4654   33.8234 C   0  0  0  0  0  0  0  0  0  0  0  0
  -13.3396  -20.4740   34.4077 C   0  0  0  0  0  0  0  0  0  0  0  0
  -13.9837  -19.2945   34.7323 N   0  0  0  0  0  0  0  0  0  0  0  0
  -13.4735  -18.0889   35.1643 C   0  0  0  0  0  0  0  0  0  0  0  0
  -14.4909  -17.1721   34.9543 C   0  0  0  0  0  0  0  0  0  0  0  0
  -14.3935  -15.7001   34.6318 C   0  0  0  0  0  0  0  0  0  0  0  0
  -15.2117  -14.7895   35.5327 N   0  0  0  0  0  0  0  0  0  0  0  0
  -15.3451  -13.1986   34.8773 S   0  0  0  0  0  0  0  0  0  0  0  0
  -14.1729  -13.0324   34.0596 O   0  0  0  0  0  0  0  0  0  0  0  0
  -16.6908  -13.0398   34.3896 O   0  0  0  0  0  0  0  0  0  0  0  0
  -15.1345  -11.8172   35.9784 C   0  0  0  0  0  0  0  0  0  0  0  0
  -15.4605  -11.4509   37.2715 C   0  0  0  0  0  0  0  0  0  0  0  0
  -14.9649  -10.1364   37.4371 C   0  0  0  0  0  0  0  0  0  0  0  0
  -14.3919   -9.6702   36.3288 N   0  0  0  0  0  0  0  0  0  0  0  0
  -14.4972  -10.7022   35.4706 N   0  0  0  0  0  0  0  0  0  0  0  0
  -15.6506  -17.8466   34.6387 N   0  0  0  0  0  0  0  0  0  0  0  0
  -15.3303  -19.1092   34.4558 C   0  0  0  0  0  0  0  0  0  0  0  0
  -16.0622  -20.0588   33.8108 N   0  0  0  0  0  0  0  0  0  0  0  0
  -15.9246  -22.1544   31.6587 H   0  0  0  0  0  0  0  0  0  0  0  0
  -17.3036  -21.9406   32.7456 H   0  0  0  0  0  0  0  0  0  0  0  0
  -16.1065  -23.1740   33.1383 H   0  0  0  0  0  0  0  0  0  0  0  0
  -13.6007  -22.4392   33.6522 H   0  0  0  0  0  0  0  0  0  0  0  0
  -12.3050  -20.5563   34.6832 H   0  0  0  0  0  0  0  0  0  0  0  0
  -12.4141  -17.9642   35.3420 H   0  0  0  0  0  0  0  0  0  0  0  0
  -14.7351  -15.5724   33.6207 H   0  0  0  0  0  0  0  0  0  0  0  0
  -13.3364  -15.4245   34.5793 H   0  0  0  0  0  0  0  0  0  0  0  0
  -16.1672  -15.1703   35.5975 H   0  0  0  0  0  0  0  0  0  0  0  0
  -15.9839  -12.0528   38.0002 H   0  0  0  0  0  0  0  0  0  0  0  0
  -15.0086   -9.5058   38.3164 H   0  0  0  0  0  0  0  0  0  0  0  0
  -14.1126  -10.6084   34.5341 H   0  0  0  0  0  0  0  0  0  0  0  0
  1  2  1  0
  2  3  1  0
  3  4  2  0
  4  5  1  0
  5  6  1  0
  6  7  2  0
  7  8  1  0
  8  9  1  0
  9 10  1  0
 10 11  2  0
 10 12  2  0
 10 13  1  0
 13 14  2  0
 14 15  1  0
 15 16  2  0
 16 17  1  0
  7 18  1  0
 18 19  2  0
 19 20  1  0
 20  2  2  0
 19  5  1  0
 17 13  1  0
  1 21  1  0
  1 22  1  0
  1 23  1  0
  3 24  1  0
  4 25  1  0
  6 26  1  0
  8 27  1  0
  8 28  1  0
  9 29  1  0
 14 30  1  0
 15 31  1  0
 17 32  1  0
M  END
>  <Energy>  (842) 
-57.166250742030151

>  <compound_id>  (842) 
41380

>  <target_id>  (842) 
1

>  <reference_id>  (842) 
7

>  <inspiration_ids>  (842) 
[107, 7]

>  <energy_score>  (842) 
-24.713124266447913

>  <distance_score>  (842) 
8.380715762650881

>  <path>  (842) 
/opt/xchem-fragalysis-2/maxwin/BulkDock/SCRATCH/511022/C41380-P7/C41380-P7.minimised.mol

>  <scratch_subdir>  (842) 
/opt/xchem-fragalysis-2/maxwin/BulkDock/SCRATCH/511022/C41380-P7

>  <fragmenstein_runtime>  (842) 
12.053122997283936

>  <fragmenstein_outcome>  (842) 
too moved

>  <fragmenstein_mode>  (842) 
expansion

>  <fragmenstein_error>  (842) 


$$$$
C45288-P107
     RDKit          3D

 41 43  0  0  0  0  0  0  0  0999 V2000
  -16.9237  -13.6093   36.9035 C   0  0  0  0  0  0  0  0  0  0  0  0
  -15.4029  -13.5229   37.0301 C   0  0  0  0  0  0  0  0  0  0  0  0
  -14.7135  -14.4826   35.8592 C   0  0  0  0  0  0  0  0  0  0  0  0
  -14.6459  -16.0493   36.2657 C   0  0  0  0  0  0  0  0  0  0  0  0
  -14.1640  -17.2303   35.4233 N   0  0  0  0  0  0  0  0  0  0  0  0
  -14.7961  -18.6649   35.2125 C   0  0  0  0  0  0  0  0  0  0  0  0
  -15.8148  -19.1104   35.5952 O   0  0  0  0  0  0  0  0  0  0  0  0
  -13.9727  -19.7449   34.4087 C   0  0  0  0  0  0  0  0  0  0  0  0
  -14.5543  -20.9467   33.9695 C   0  0  0  0  0  0  0  0  0  0  0  0
  -13.6014  -21.6992   33.3333 N   0  0  0  0  0  0  0  0  0  0  0  0
  -13.7005  -22.9381   32.7191 C   0  0  0  0  0  0  0  0  0  0  0  0
  -12.7233  -23.3841   31.9223 C   0  0  0  0  0  0  0  0  0  0  0  0
  -11.6238  -22.4167   31.7629 C   0  0  0  0  0  0  0  0  0  0  0  0
  -11.4668  -21.2916   32.3932 N   0  0  0  0  0  0  0  0  0  0  0  0
  -12.4533  -20.9345   33.2898 C   0  0  0  0  0  0  0  0  0  0  0  0
  -12.6177  -19.8251   34.0393 N   0  0  0  0  0  0  0  0  0  0  0  0
  -14.9785  -12.0676   37.3588 N   0  0  0  0  0  0  0  0  0  0  0  0
  -15.8590  -10.7631   37.5857 C   0  0  0  0  0  0  0  0  0  0  0  0
  -17.0219  -10.5999   37.4768 O   0  0  0  0  0  0  0  0  0  0  0  0
  -15.1300   -9.4644   38.1560 C   0  0  0  0  0  0  0  0  0  0  0  0
  -15.7616   -8.1368   38.3193 C   0  0  0  0  0  0  0  0  0  0  0  0
  -14.9083   -7.3428   39.0532 C   0  0  0  0  0  0  0  0  0  0  0  0
  -13.8383   -8.1535   39.3049 N   0  0  0  0  0  0  0  0  0  0  0  0
  -13.8638   -9.3383   38.6181 N   0  0  0  0  0  0  0  0  0  0  0  0
  -17.2535  -14.6489   36.8291 H   0  0  0  0  0  0  0  0  0  0  0  0
  -17.2721  -13.0695   36.0171 H   0  0  0  0  0  0  0  0  0  0  0  0
  -17.4188  -13.1811   37.7811 H   0  0  0  0  0  0  0  0  0  0  0  0
  -15.1365  -14.0273   37.9684 H   0  0  0  0  0  0  0  0  0  0  0  0
  -15.3044  -14.3791   34.9433 H   0  0  0  0  0  0  0  0  0  0  0  0
  -13.7132  -14.1398   35.6088 H   0  0  0  0  0  0  0  0  0  0  0  0
  -14.0257  -16.1111   37.1667 H   0  0  0  0  0  0  0  0  0  0  0  0
  -15.6561  -16.3422   36.5729 H   0  0  0  0  0  0  0  0  0  0  0  0
  -13.3021  -17.1536   34.8824 H   0  0  0  0  0  0  0  0  0  0  0  0
  -15.5668  -21.3097   34.0830 H   0  0  0  0  0  0  0  0  0  0  0  0
  -14.6068  -23.4886   32.9216 H   0  0  0  0  0  0  0  0  0  0  0  0
  -12.7243  -24.3320   31.4088 H   0  0  0  0  0  0  0  0  0  0  0  0
  -10.8827  -22.7124   31.0221 H   0  0  0  0  0  0  0  0  0  0  0  0
  -13.9861  -11.8345   37.4614 H   0  0  0  0  0  0  0  0  0  0  0  0
  -16.7686   -7.8944   38.0053 H   0  0  0  0  0  0  0  0  0  0  0  0
  -14.9865   -6.3430   39.4556 H   0  0  0  0  0  0  0  0  0  0  0  0
  -13.0007   -7.9326   39.8347 H   0  0  0  0  0  0  0  0  0  0  0  0
  1  2  1  0
  2  3  1  0
  3  4  1  0
  4  5  1  0
  5  6  1  0
  6  7  2  0
  6  8  1  0
  8  9  2  0
  9 10  1  0
 10 11  1  0
 11 12  2  0
 12 13  1  0
 13 14  2  0
 14 15  1  0
 15 16  2  0
  2 17  1  0
 17 18  1  0
 18 19  2  0
 18 20  1  0
 20 21  1  0
 21 22  2  0
 22 23  1  0
 23 24  1  0
 16  8  1  0
 24 20  2  0
 15 10  1  0
  1 25  1  0
  1 26  1  0
  1 27  1  0
  2 28  1  0
  3 29  1  0
  3 30  1  0
  4 31  1  0
  4 32  1  0
  5 33  1  0
  9 34  1  0
 11 35  1  0
 12 36  1  0
 13 37  1  0
 17 38  1  0
 21 39  1  0
 22 40  1  0
 23 41  1  0
M  END
>  <Energy>  (843) 
150.47292784213138

>  <compound_id>  (843) 
45288

>  <target_id>  (843) 
1

>  <reference_id>  (843) 
107

>  <inspiration_ids>  (843) 
[107, 7]

>  <energy_score>  (843) 
66.60438864446076

>  <distance_score>  (843) 
6.014512063003343

>  <path>  (843) 
/opt/xchem-fragalysis-2/maxwin/BulkDock/SCRATCH/511022/C45288-P107/C45288-P107.minimised.mol

>  <scratch_subdir>  (843) 
/opt/xchem-fragalysis-2/maxwin/BulkDock/SCRATCH/511022/C45288-P107

>  <fragmenstein_runtime>  (843) 
18.780372381210327

>  <fragmenstein_outcome>  (843) 
too moved

>  <fragmenstein_mode>  (843) 
expansion

>  <fragmenstein_error>  (843) 


$$$$
C45288-P7
     RDKit          3D

 41 43  0  0  0  0  0  0  0  0999 V2000
  -17.4316  -11.7167   36.1545 C   0  0  0  0  0  0  0  0  0  0  0  0
  -15.9090  -11.6121   36.3106 C   0  0  0  0  0  0  0  0  0  0  0  0
  -15.1623  -12.6327   35.2865 C   0  0  0  0  0  0  0  0  0  0  0  0
  -15.6813  -14.1653   35.4603 C   0  0  0  0  0  0  0  0  0  0  0  0
  -14.9849  -15.4849   35.1217 N   0  0  0  0  0  0  0  0  0  0  0  0
  -15.1770  -16.9411   35.7389 C   0  0  0  0  0  0  0  0  0  0  0  0
  -15.8398  -17.3033   36.6426 O   0  0  0  0  0  0  0  0  0  0  0  0
  -14.4976  -18.1546   35.0252 C   0  0  0  0  0  0  0  0  0  0  0  0
  -15.1767  -19.3557   34.7579 C   0  0  0  0  0  0  0  0  0  0  0  0
  -14.2690  -20.2931   34.3327 N   0  0  0  0  0  0  0  0  0  0  0  0
  -14.4045  -21.6565   34.0825 C   0  0  0  0  0  0  0  0  0  0  0  0
  -13.2934  -22.3556   33.8291 C   0  0  0  0  0  0  0  0  0  0  0  0
  -12.1882  -21.5445   33.3282 C   0  0  0  0  0  0  0  0  0  0  0  0
  -12.0368  -20.2800   33.5777 N   0  0  0  0  0  0  0  0  0  0  0  0
  -13.0356  -19.6577   34.2935 C   0  0  0  0  0  0  0  0  0  0  0  0
  -13.1637  -18.3779   34.6765 N   0  0  0  0  0  0  0  0  0  0  0  0
  -15.5460  -10.1422   36.5094 N   0  0  0  0  0  0  0  0  0  0  0  0
  -16.1823   -8.8372   35.8893 C   0  0  0  0  0  0  0  0  0  0  0  0
  -17.0253   -8.7130   35.0774 O   0  0  0  0  0  0  0  0  0  0  0  0
  -15.6701   -7.5030   36.5461 C   0  0  0  0  0  0  0  0  0  0  0  0
  -16.0121   -6.1356   36.1496 C   0  0  0  0  0  0  0  0  0  0  0  0
  -15.3613   -5.2655   36.9982 C   0  0  0  0  0  0  0  0  0  0  0  0
  -14.8008   -6.0820   37.9236 N   0  0  0  0  0  0  0  0  0  0  0  0
  -14.8552   -7.4092   37.6215 N   0  0  0  0  0  0  0  0  0  0  0  0
  -17.7426  -11.4169   35.1516 H   0  0  0  0  0  0  0  0  0  0  0  0
  -17.9468  -11.0701   36.8736 H   0  0  0  0  0  0  0  0  0  0  0  0
  -17.7910  -12.7350   36.3272 H   0  0  0  0  0  0  0  0  0  0  0  0
  -15.6761  -12.0207   37.3034 H   0  0  0  0  0  0  0  0  0  0  0  0
  -15.3602  -12.3132   34.2562 H   0  0  0  0  0  0  0  0  0  0  0  0
  -14.0841  -12.5539   35.4307 H   0  0  0  0  0  0  0  0  0  0  0  0
  -15.9781  -14.2990   36.5076 H   0  0  0  0  0  0  0  0  0  0  0  0
  -16.6161  -14.2222   34.8941 H   0  0  0  0  0  0  0  0  0  0  0  0
  -14.3995  -15.5409   34.2878 H   0  0  0  0  0  0  0  0  0  0  0  0
  -16.2107  -19.6186   34.9334 H   0  0  0  0  0  0  0  0  0  0  0  0
  -15.3447  -22.1212   34.3492 H   0  0  0  0  0  0  0  0  0  0  0  0
  -13.2045  -23.4209   33.9538 H   0  0  0  0  0  0  0  0  0  0  0  0
  -11.4349  -22.0810   32.7286 H   0  0  0  0  0  0  0  0  0  0  0  0
  -14.7793   -9.8865   37.1291 H   0  0  0  0  0  0  0  0  0  0  0  0
  -16.6476   -5.8804   35.3140 H   0  0  0  0  0  0  0  0  0  0  0  0
  -15.3278   -4.1875   37.0625 H   0  0  0  0  0  0  0  0  0  0  0  0
  -14.3250   -5.8222   38.7809 H   0  0  0  0  0  0  0  0  0  0  0  0
  1  2  1  0
  2  3  1  0
  3  4  1  0
  4  5  1  0
  5  6  1  0
  6  7  2  0
  6  8  1  0
  8  9  2  0
  9 10  1  0
 10 11  1  0
 11 12  2  0
 12 13  1  0
 13 14  2  0
 14 15  1  0
 15 16  2  0
  2 17  1  0
 17 18  1  0
 18 19  2  0
 18 20  1  0
 20 21  1  0
 21 22  2  0
 22 23  1  0
 23 24  1  0
 16  8  1  0
 24 20  2  0
 15 10  1  0
  1 25  1  0
  1 26  1  0
  1 27  1  0
  2 28  1  0
  3 29  1  0
  3 30  1  0
  4 31  1  0
  4 32  1  0
  5 33  1  0
  9 34  1  0
 11 35  1  0
 12 36  1  0
 13 37  1  0
 17 38  1  0
 21 39  1  0
 22 40  1  0
 23 41  1  0
M  END
>  <Energy>  (844) 
149.10380142786508

>  <compound_id>  (844) 
45288

>  <target_id>  (844) 
1

>  <reference_id>  (844) 
7

>  <inspiration_ids>  (844) 
[107, 7]

>  <energy_score>  (844) 
65.23526223019473

>  <distance_score>  (844) 
6.137786578638474

>  <path>  (844) 
/opt/xchem-fragalysis-2/maxwin/BulkDock/SCRATCH/511022/C45288-P7/C45288-P7.minimised.mol

>  <scratch_subdir>  (844) 
/opt/xchem-fragalysis-2/maxwin/BulkDock/SCRATCH/511022/C45288-P7

>  <fragmenstein_runtime>  (844) 
10.788071870803833

>  <fragmenstein_outcome>  (844) 
too moved

>  <fragmenstein_mode>  (844) 
expansion

>  <fragmenstein_error>  (844) 


$$$$
C45289-P107
     RDKit          3D

 38 40  0  0  0  0  0  0  0  0999 V2000
  -14.7367  -12.2223   35.0119 C   0  0  0  0  0  0  0  0  0  0  0  0
  -14.6061  -12.8606   36.3363 N   0  0  0  0  0  0  0  0  0  0  0  0
  -14.5385  -11.3565   36.8025 C   0  0  0  0  0  0  0  0  0  0  0  0
  -13.0830  -10.3992   36.9310 C   0  0  0  0  0  0  0  0  0  0  0  0
  -13.6128   -9.0122   36.6914 N   0  0  0  0  0  0  0  0  0  0  0  0
  -12.9463   -7.6230   35.6411 C   0  0  0  0  0  0  0  0  0  0  0  0
  -11.9102   -7.5811   35.0385 O   0  0  0  0  0  0  0  0  0  0  0  0
  -13.9084   -6.1349   35.6395 C   0  0  0  0  0  0  0  0  0  0  0  0
  -13.0988   -4.8249   36.0137 C   0  0  0  0  0  0  0  0  0  0  0  0
  -13.8345   -4.1971   37.0291 C   0  0  0  0  0  0  0  0  0  0  0  0
  -15.0184   -4.9037   37.1475 N   0  0  0  0  0  0  0  0  0  0  0  0
  -15.0641   -6.0881   36.4172 N   0  0  0  0  0  0  0  0  0  0  0  0
  -15.6214  -13.8455   36.5084 C   0  0  0  0  0  0  0  0  0  0  0  0
  -16.7266  -13.7550   36.9758 O   0  0  0  0  0  0  0  0  0  0  0  0
  -15.1019  -15.2143   36.0980 C   0  0  0  0  0  0  0  0  0  0  0  0
  -15.8317  -16.3956   36.0287 C   0  0  0  0  0  0  0  0  0  0  0  0
  -14.9847  -17.3568   35.5388 N   0  0  0  0  0  0  0  0  0  0  0  0
  -15.2387  -18.6560   35.1063 C   0  0  0  0  0  0  0  0  0  0  0  0
  -14.2251  -19.4074   34.6516 C   0  0  0  0  0  0  0  0  0  0  0  0
  -12.8780  -18.7801   34.7780 C   0  0  0  0  0  0  0  0  0  0  0  0
  -12.6349  -17.5685   35.1726 N   0  0  0  0  0  0  0  0  0  0  0  0
  -13.7161  -16.7972   35.4822 C   0  0  0  0  0  0  0  0  0  0  0  0
  -13.7803  -15.5058   35.7427 N   0  0  0  0  0  0  0  0  0  0  0  0
  -13.8006  -11.7752   34.6903 H   0  0  0  0  0  0  0  0  0  0  0  0
  -14.8542  -13.0484   34.2926 H   0  0  0  0  0  0  0  0  0  0  0  0
  -15.6519  -11.6392   34.8366 H   0  0  0  0  0  0  0  0  0  0  0  0
  -15.4231  -10.7537   36.5343 H   0  0  0  0  0  0  0  0  0  0  0  0
  -14.7551  -11.5017   37.8758 H   0  0  0  0  0  0  0  0  0  0  0  0
  -12.7309  -10.4462   37.9657 H   0  0  0  0  0  0  0  0  0  0  0  0
  -12.3207  -10.7127   36.2195 H   0  0  0  0  0  0  0  0  0  0  0  0
  -14.5059   -8.7233   37.1661 H   0  0  0  0  0  0  0  0  0  0  0  0
  -12.1151   -4.5808   35.6389 H   0  0  0  0  0  0  0  0  0  0  0  0
  -13.6445   -3.3054   37.6093 H   0  0  0  0  0  0  0  0  0  0  0  0
  -15.8123   -4.6767   37.7389 H   0  0  0  0  0  0  0  0  0  0  0  0
  -16.8782  -16.5861   36.2205 H   0  0  0  0  0  0  0  0  0  0  0  0
  -16.2667  -18.9947   35.1345 H   0  0  0  0  0  0  0  0  0  0  0  0
  -14.3166  -20.4169   34.2755 H   0  0  0  0  0  0  0  0  0  0  0  0
  -12.0329  -19.4332   34.5071 H   0  0  0  0  0  0  0  0  0  0  0  0
  1  2  1  0
  2  3  1  0
  3  4  1  0
  4  5  1  0
  5  6  1  0
  6  7  2  0
  6  8  1  0
  8  9  1  0
  9 10  2  0
 10 11  1  0
 11 12  1  0
  2 13  1  0
 13 14  2  0
 13 15  1  0
 15 16  2  0
 16 17  1  0
 17 18  1  0
 18 19  2  0
 19 20  1  0
 20 21  2  0
 21 22  1  0
 22 23  2  0
 12  8  2  0
 23 15  1  0
 22 17  1  0
  1 24  1  0
  1 25  1  0
  1 26  1  0
  3 27  1  0
  3 28  1  0
  4 29  1  0
  4 30  1  0
  5 31  1  0
  9 32  1  0
 10 33  1  0
 11 34  1  0
 16 35  1  0
 18 36  1  0
 19 37  1  0
 20 38  1  0
M  END
>  <Energy>  (845) 
282.48456266311126

>  <compound_id>  (845) 
45289

>  <target_id>  (845) 
1

>  <reference_id>  (845) 
107

>  <inspiration_ids>  (845) 
[107, 7]

>  <energy_score>  (845) 
159.00109554180426

>  <distance_score>  (845) 
7.509866273307532

>  <path>  (845) 
/opt/xchem-fragalysis-2/maxwin/BulkDock/SCRATCH/511022/C45289-P107/C45289-P107.minimised.mol

>  <scratch_subdir>  (845) 
/opt/xchem-fragalysis-2/maxwin/BulkDock/SCRATCH/511022/C45289-P107

>  <fragmenstein_runtime>  (845) 
9.26055097579956

>  <fragmenstein_outcome>  (845) 
too moved

>  <fragmenstein_mode>  (845) 
expansion

>  <fragmenstein_error>  (845) 


$$$$
C45289-P7
     RDKit          3D

 38 40  0  0  0  0  0  0  0  0999 V2000
  -15.8125  -12.4864   34.2747 C   0  0  0  0  0  0  0  0  0  0  0  0
  -15.1918  -12.9786   35.5392 N   0  0  0  0  0  0  0  0  0  0  0  0
  -14.9868  -11.3849   35.7890 C   0  0  0  0  0  0  0  0  0  0  0  0
  -13.8313  -10.7440   34.9494 C   0  0  0  0  0  0  0  0  0  0  0  0
  -12.9379   -9.6005   35.1310 N   0  0  0  0  0  0  0  0  0  0  0  0
  -13.1418   -8.2826   35.8556 C   0  0  0  0  0  0  0  0  0  0  0  0
  -14.0744   -7.8949   36.5341 O   0  0  0  0  0  0  0  0  0  0  0  0
  -11.7227   -6.8348   35.5711 C   0  0  0  0  0  0  0  0  0  0  0  0
  -12.1899   -5.0728   36.0092 C   0  0  0  0  0  0  0  0  0  0  0  0
  -11.0811   -4.3315   36.1150 C   0  0  0  0  0  0  0  0  0  0  0  0
  -10.2778   -5.3877   35.8571 N   0  0  0  0  0  0  0  0  0  0  0  0
  -10.7320   -6.3089   34.8907 N   0  0  0  0  0  0  0  0  0  0  0  0
  -16.0682  -13.9277   36.1808 C   0  0  0  0  0  0  0  0  0  0  0  0
  -16.9327  -13.7617   37.0000 O   0  0  0  0  0  0  0  0  0  0  0  0
  -15.7222  -15.3565   35.7846 C   0  0  0  0  0  0  0  0  0  0  0  0
  -16.5093  -16.4932   35.9353 C   0  0  0  0  0  0  0  0  0  0  0  0
  -15.7697  -17.5502   35.4561 N   0  0  0  0  0  0  0  0  0  0  0  0
  -16.1350  -18.8622   35.1638 C   0  0  0  0  0  0  0  0  0  0  0  0
  -15.2090  -19.7191   34.7072 C   0  0  0  0  0  0  0  0  0  0  0  0
  -13.8159  -19.1856   34.7257 C   0  0  0  0  0  0  0  0  0  0  0  0
  -13.4786  -17.9461   34.9126 N   0  0  0  0  0  0  0  0  0  0  0  0
  -14.4857  -17.0779   35.2144 C   0  0  0  0  0  0  0  0  0  0  0  0
  -14.4696  -15.7602   35.2958 N   0  0  0  0  0  0  0  0  0  0  0  0
  -16.7025  -11.8585   34.4012 H   0  0  0  0  0  0  0  0  0  0  0  0
  -15.1019  -12.1668   33.5112 H   0  0  0  0  0  0  0  0  0  0  0  0
  -16.2390  -13.3826   33.8022 H   0  0  0  0  0  0  0  0  0  0  0  0
  -15.9204  -10.8059   35.8417 H   0  0  0  0  0  0  0  0  0  0  0  0
  -14.6387  -11.3803   36.8318 H   0  0  0  0  0  0  0  0  0  0  0  0
  -14.2617  -10.4879   33.9769 H   0  0  0  0  0  0  0  0  0  0  0  0
  -13.1430  -11.5643   34.7845 H   0  0  0  0  0  0  0  0  0  0  0  0
  -12.0045   -9.6201   34.7298 H   0  0  0  0  0  0  0  0  0  0  0  0
  -13.1869   -4.8450   36.4101 H   0  0  0  0  0  0  0  0  0  0  0  0
  -10.8109   -3.3679   36.5177 H   0  0  0  0  0  0  0  0  0  0  0  0
   -9.2737   -5.4250   36.0185 H   0  0  0  0  0  0  0  0  0  0  0  0
  -17.5224  -16.6123   36.2917 H   0  0  0  0  0  0  0  0  0  0  0  0
  -17.1753  -19.1307   35.2978 H   0  0  0  0  0  0  0  0  0  0  0  0
  -15.3879  -20.7533   34.4438 H   0  0  0  0  0  0  0  0  0  0  0  0
  -13.0256  -19.9323   34.5351 H   0  0  0  0  0  0  0  0  0  0  0  0
  1  2  1  0
  2  3  1  0
  3  4  1  0
  4  5  1  0
  5  6  1  0
  6  7  2  0
  6  8  1  0
  8  9  1  0
  9 10  2  0
 10 11  1  0
 11 12  1  0
  2 13  1  0
 13 14  2  0
 13 15  1  0
 15 16  2  0
 16 17  1  0
 17 18  1  0
 18 19  2  0
 19 20  1  0
 20 21  2  0
 21 22  1  0
 22 23  2  0
 12  8  2  0
 23 15  1  0
 22 17  1  0
  1 24  1  0
  1 25  1  0
  1 26  1  0
  3 27  1  0
  3 28  1  0
  4 29  1  0
  4 30  1  0
  5 31  1  0
  9 32  1  0
 10 33  1  0
 11 34  1  0
 16 35  1  0
 18 36  1  0
 19 37  1  0
 20 38  1  0
M  END
>  <Energy>  (846) 
365.4896428111486

>  <compound_id>  (846) 
45289

>  <target_id>  (846) 
1

>  <reference_id>  (846) 
7

>  <inspiration_ids>  (846) 
[107, 7]

>  <energy_score>  (846) 
242.0061756898375

>  <distance_score>  (846) 
7.507520163089005

>  <path>  (846) 
/opt/xchem-fragalysis-2/maxwin/BulkDock/SCRATCH/511022/C45289-P7/C45289-P7.minimised.mol

>  <scratch_subdir>  (846) 
/opt/xchem-fragalysis-2/maxwin/BulkDock/SCRATCH/511022/C45289-P7

>  <fragmenstein_runtime>  (846) 
14.21474552154541

>  <fragmenstein_outcome>  (846) 
too moved

>  <fragmenstein_mode>  (846) 
expansion

>  <fragmenstein_error>  (846) 


$$$$
C45290-P107
     RDKit          3D

 28 30  0  0  0  0  0  0  0  0999 V2000
  -14.7734  -15.3888   38.0311 O   0  0  0  0  0  0  0  0  0  0  0  0
  -15.5532  -15.4596   37.1262 C   0  0  0  0  0  0  0  0  0  0  0  0
  -16.5939  -14.5258   36.6894 N   0  0  0  0  0  0  0  0  0  0  0  0
  -17.1269  -13.1096   37.3518 S   0  0  0  0  0  0  0  0  0  0  0  0
  -17.8015  -13.4307   38.5949 O   0  0  0  0  0  0  0  0  0  0  0  0
  -17.8673  -12.4462   36.2890 O   0  0  0  0  0  0  0  0  0  0  0  0
  -15.9543  -11.8663   37.8226 C   0  0  0  0  0  0  0  0  0  0  0  0
  -16.1698  -10.4638   37.6491 C   0  0  0  0  0  0  0  0  0  0  0  0
  -15.0978   -9.8492   38.2555 C   0  0  0  0  0  0  0  0  0  0  0  0
  -14.2879  -10.8639   38.6742 N   0  0  0  0  0  0  0  0  0  0  0  0
  -14.8481  -12.0818   38.5534 N   0  0  0  0  0  0  0  0  0  0  0  0
  -15.5883  -16.6871   36.3163 C   0  0  0  0  0  0  0  0  0  0  0  0
  -16.6778  -17.4300   35.8898 C   0  0  0  0  0  0  0  0  0  0  0  0
  -16.3161  -18.5010   35.1168 N   0  0  0  0  0  0  0  0  0  0  0  0
  -15.0048  -18.5099   35.1101 C   0  0  0  0  0  0  0  0  0  0  0  0
  -14.1747  -19.3833   34.4686 N   0  0  0  0  0  0  0  0  0  0  0  0
  -12.9028  -19.2268   34.6795 C   0  0  0  0  0  0  0  0  0  0  0  0
  -12.2869  -18.1542   35.4962 C   0  0  0  0  0  0  0  0  0  0  0  0
  -13.1438  -17.3007   36.0696 C   0  0  0  0  0  0  0  0  0  0  0  0
  -14.5089  -17.4544   35.8823 N   0  0  0  0  0  0  0  0  0  0  0  0
  -17.0170  -14.8745   35.8259 H   0  0  0  0  0  0  0  0  0  0  0  0
  -17.0223   -9.9929   37.1801 H   0  0  0  0  0  0  0  0  0  0  0  0
  -14.8438   -8.8141   38.4180 H   0  0  0  0  0  0  0  0  0  0  0  0
  -13.3665  -10.8101   39.0976 H   0  0  0  0  0  0  0  0  0  0  0  0
  -17.7247  -17.2306   36.0894 H   0  0  0  0  0  0  0  0  0  0  0  0
  -12.1922  -19.9259   34.2089 H   0  0  0  0  0  0  0  0  0  0  0  0
  -11.2148  -18.0720   35.5644 H   0  0  0  0  0  0  0  0  0  0  0  0
  -12.8205  -16.4730   36.6810 H   0  0  0  0  0  0  0  0  0  0  0  0
  1  2  2  0
  2  3  1  0
  3  4  1  0
  4  5  2  0
  4  6  2  0
  4  7  1  0
  7  8  1  0
  8  9  2  0
  9 10  1  0
 10 11  1  0
  2 12  1  0
 12 13  2  0
 13 14  1  0
 14 15  2  0
 15 16  1  0
 16 17  2  0
 17 18  1  0
 18 19  2  0
 19 20  1  0
 11  7  2  0
 20 12  1  0
 20 15  1  0
  3 21  1  0
  8 22  1  0
  9 23  1  0
 10 24  1  0
 13 25  1  0
 17 26  1  0
 18 27  1  0
 19 28  1  0
M  END
>  <Energy>  (847) 
-27.88923052625184

>  <compound_id>  (847) 
45290

>  <target_id>  (847) 
1

>  <reference_id>  (847) 
107

>  <inspiration_ids>  (847) 
[107, 7]

>  <energy_score>  (847) 
-48.8586098566706

>  <distance_score>  (847) 
9.37765103363475

>  <path>  (847) 
/opt/xchem-fragalysis-2/maxwin/BulkDock/SCRATCH/511022/C45290-P107/C45290-P107.minimised.mol

>  <scratch_subdir>  (847) 
/opt/xchem-fragalysis-2/maxwin/BulkDock/SCRATCH/511022/C45290-P107

>  <fragmenstein_runtime>  (847) 
9.032398700714111

>  <fragmenstein_outcome>  (847) 
too moved

>  <fragmenstein_mode>  (847) 
expansion

>  <fragmenstein_error>  (847) 


$$$$
C45290-P7
     RDKit          3D

 28 30  0  0  0  0  0  0  0  0999 V2000
  -12.8298  -11.5687   35.9133 O   0  0  0  0  0  0  0  0  0  0  0  0
  -13.7429  -11.0077   35.3939 C   0  0  0  0  0  0  0  0  0  0  0  0
  -14.1130   -9.5577   35.3900 N   0  0  0  0  0  0  0  0  0  0  0  0
  -13.4348   -8.2341   36.2200 S   0  0  0  0  0  0  0  0  0  0  0  0
  -14.5884   -7.3460   36.4831 O   0  0  0  0  0  0  0  0  0  0  0  0
  -13.1243   -8.8530   37.5231 O   0  0  0  0  0  0  0  0  0  0  0  0
  -11.6071   -6.6391   35.6655 C   0  0  0  0  0  0  0  0  0  0  0  0
  -10.8626   -5.1912   36.6684 C   0  0  0  0  0  0  0  0  0  0  0  0
  -11.1351   -3.8713   36.4690 C   0  0  0  0  0  0  0  0  0  0  0  0
  -11.5808   -4.1823   35.3136 N   0  0  0  0  0  0  0  0  0  0  0  0
  -11.4906   -5.4954   34.9547 N   0  0  0  0  0  0  0  0  0  0  0  0
  -14.7478  -11.9428   34.7197 C   0  0  0  0  0  0  0  0  0  0  0  0
  -16.1217  -11.7323   34.8094 C   0  0  0  0  0  0  0  0  0  0  0  0
  -16.8244  -12.8754   35.0986 N   0  0  0  0  0  0  0  0  0  0  0  0
  -15.9313  -13.8308   35.1914 C   0  0  0  0  0  0  0  0  0  0  0  0
  -16.0638  -15.1084   35.6734 N   0  0  0  0  0  0  0  0  0  0  0  0
  -15.1846  -15.9803   35.2888 C   0  0  0  0  0  0  0  0  0  0  0  0
  -14.0767  -15.6986   34.3533 C   0  0  0  0  0  0  0  0  0  0  0  0
  -13.9183  -14.3933   34.0729 C   0  0  0  0  0  0  0  0  0  0  0  0
  -14.7450  -13.3871   34.6000 N   0  0  0  0  0  0  0  0  0  0  0  0
  -14.9980   -9.4407   34.9165 H   0  0  0  0  0  0  0  0  0  0  0  0
  -10.7011   -5.1539   37.7447 H   0  0  0  0  0  0  0  0  0  0  0  0
  -11.0126   -2.9294   36.9816 H   0  0  0  0  0  0  0  0  0  0  0  0
  -11.7348   -3.4982   34.5788 H   0  0  0  0  0  0  0  0  0  0  0  0
  -16.6277  -10.7862   34.9401 H   0  0  0  0  0  0  0  0  0  0  0  0
  -15.2533  -17.0183   35.6537 H   0  0  0  0  0  0  0  0  0  0  0  0
  -13.4684  -16.4892   33.9402 H   0  0  0  0  0  0  0  0  0  0  0  0
  -13.2124  -14.1436   33.3089 H   0  0  0  0  0  0  0  0  0  0  0  0
  1  2  2  0
  2  3  1  0
  3  4  1  0
  4  5  2  0
  4  6  2  0
  4  7  1  0
  7  8  1  0
  8  9  2  0
  9 10  1  0
 10 11  1  0
  2 12  1  0
 12 13  2  0
 13 14  1  0
 14 15  2  0
 15 16  1  0
 16 17  2  0
 17 18  1  0
 18 19  2  0
 19 20  1  0
 11  7  2  0
 20 12  1  0
 20 15  1  0
  3 21  1  0
  8 22  1  0
  9 23  1  0
 10 24  1  0
 13 25  1  0
 17 26  1  0
 18 27  1  0
 19 28  1  0
M  END
>  <Energy>  (848) 
397.96798354919633

>  <compound_id>  (848) 
45290

>  <target_id>  (848) 
1

>  <reference_id>  (848) 
7

>  <inspiration_ids>  (848) 
[107, 7]

>  <energy_score>  (848) 
376.9986042187828

>  <distance_score>  (848) 
9.548562659989102

>  <path>  (848) 
/opt/xchem-fragalysis-2/maxwin/BulkDock/SCRATCH/511022/C45290-P7/C45290-P7.minimised.mol

>  <scratch_subdir>  (848) 
/opt/xchem-fragalysis-2/maxwin/BulkDock/SCRATCH/511022/C45290-P7

>  <fragmenstein_runtime>  (848) 
6.953598499298096

>  <fragmenstein_outcome>  (848) 
too moved

>  <fragmenstein_mode>  (848) 
expansion

>  <fragmenstein_error>  (848) 


$$$$
C45291-P107
     RDKit          3D

 28 30  0  0  0  0  0  0  0  0999 V2000
  -13.2308   -9.1977   37.8183 O   0  0  0  0  0  0  0  0  0  0  0  0
  -13.5356   -9.3754   36.6694 C   0  0  0  0  0  0  0  0  0  0  0  0
  -14.2826  -10.6789   36.0507 N   0  0  0  0  0  0  0  0  0  0  0  0
  -14.8538  -11.8826   36.7116 C   0  0  0  0  0  0  0  0  0  0  0  0
  -14.7983  -13.2756   36.0435 C   0  0  0  0  0  0  0  0  0  0  0  0
  -14.1822  -13.4995   34.7124 C   0  0  0  0  0  0  0  0  0  0  0  0
  -13.7371  -14.6158   34.2134 N   0  0  0  0  0  0  0  0  0  0  0  0
  -14.0367  -15.7605   34.8849 C   0  0  0  0  0  0  0  0  0  0  0  0
  -13.8546  -17.0226   34.5379 N   0  0  0  0  0  0  0  0  0  0  0  0
  -14.3401  -17.7725   35.5738 C   0  0  0  0  0  0  0  0  0  0  0  0
  -14.8869  -16.9655   36.5432 C   0  0  0  0  0  0  0  0  0  0  0  0
  -14.7230  -15.6797   36.0867 N   0  0  0  0  0  0  0  0  0  0  0  0
  -15.0786  -14.4529   36.6599 C   0  0  0  0  0  0  0  0  0  0  0  0
  -13.1407   -7.7060   35.5887 C   0  0  0  0  0  0  0  0  0  0  0  0
  -13.9974   -6.3076   35.5118 C   0  0  0  0  0  0  0  0  0  0  0  0
  -13.0123   -5.3111   35.4639 C   0  0  0  0  0  0  0  0  0  0  0  0
  -11.8888   -5.9020   35.0763 N   0  0  0  0  0  0  0  0  0  0  0  0
  -11.9078   -7.2476   35.1916 N   0  0  0  0  0  0  0  0  0  0  0  0
  -14.3313  -10.5841   35.0482 H   0  0  0  0  0  0  0  0  0  0  0  0
  -14.5128  -11.8974   37.7519 H   0  0  0  0  0  0  0  0  0  0  0  0
  -15.9227  -11.6376   36.7726 H   0  0  0  0  0  0  0  0  0  0  0  0
  -14.0601  -12.5851   34.1181 H   0  0  0  0  0  0  0  0  0  0  0  0
  -14.2785  -18.8524   35.5591 H   0  0  0  0  0  0  0  0  0  0  0  0
  -15.3737  -17.1841   37.4814 H   0  0  0  0  0  0  0  0  0  0  0  0
  -15.5051  -14.4971   37.6536 H   0  0  0  0  0  0  0  0  0  0  0  0
  -14.9929   -6.2333   35.9522 H   0  0  0  0  0  0  0  0  0  0  0  0
  -12.9482   -4.3124   35.8765 H   0  0  0  0  0  0  0  0  0  0  0  0
  -10.9740   -5.5321   35.2150 H   0  0  0  0  0  0  0  0  0  0  0  0
  1  2  2  0
  2  3  1  0
  3  4  1  0
  4  5  1  0
  5  6  1  0
  6  7  2  0
  7  8  1  0
  8  9  2  0
  9 10  1  0
 10 11  2  0
 11 12  1  0
 12 13  1  0
  2 14  1  0
 14 15  1  0
 15 16  2  0
 16 17  1  0
 17 18  1  0
 13  5  2  0
 18 14  2  0
 12  8  1  0
  3 19  1  0
  4 20  1  0
  4 21  1  0
  6 22  1  0
 10 23  1  0
 11 24  1  0
 13 25  1  0
 15 26  1  0
 16 27  1  0
 17 28  1  0
M  END
>  <Energy>  (849) 
203.35109140129441

>  <compound_id>  (849) 
45291

>  <target_id>  (849) 
1

>  <reference_id>  (849) 
107

>  <inspiration_ids>  (849) 
[107, 7]

>  <energy_score>  (849) 
137.3639438412734

>  <distance_score>  (849) 
9.449652388308182

>  <path>  (849) 
/opt/xchem-fragalysis-2/maxwin/BulkDock/SCRATCH/511022/C45291-P107/C45291-P107.minimised.mol

>  <scratch_subdir>  (849) 
/opt/xchem-fragalysis-2/maxwin/BulkDock/SCRATCH/511022/C45291-P107

>  <fragmenstein_runtime>  (849) 
6.226608991622925

>  <fragmenstein_outcome>  (849) 
too moved

>  <fragmenstein_mode>  (849) 
expansion

>  <fragmenstein_error>  (849) 


$$$$
C45291-P7
     RDKit          3D

 28 30  0  0  0  0  0  0  0  0999 V2000
  -14.4987  -14.5504   34.5002 O   0  0  0  0  0  0  0  0  0  0  0  0
  -15.3493  -14.1494   35.2377 C   0  0  0  0  0  0  0  0  0  0  0  0
  -16.1715  -14.8447   36.1786 N   0  0  0  0  0  0  0  0  0  0  0  0
  -16.1688  -16.2368   36.6074 C   0  0  0  0  0  0  0  0  0  0  0  0
  -15.7243  -17.3323   35.6742 C   0  0  0  0  0  0  0  0  0  0  0  0
  -16.7782  -18.1424   34.9717 C   0  0  0  0  0  0  0  0  0  0  0  0
  -16.6124  -19.2224   34.2702 N   0  0  0  0  0  0  0  0  0  0  0  0
  -15.3506  -19.7270   34.2347 C   0  0  0  0  0  0  0  0  0  0  0  0
  -14.9093  -20.8143   33.6437 N   0  0  0  0  0  0  0  0  0  0  0  0
  -13.5823  -20.9177   33.9725 C   0  0  0  0  0  0  0  0  0  0  0  0
  -13.1817  -19.8182   34.6991 C   0  0  0  0  0  0  0  0  0  0  0  0
  -14.3090  -19.0638   34.8755 N   0  0  0  0  0  0  0  0  0  0  0  0
  -14.4947  -17.8793   35.5818 C   0  0  0  0  0  0  0  0  0  0  0  0
  -15.5854  -12.6552   35.3181 C   0  0  0  0  0  0  0  0  0  0  0  0
  -15.1767  -11.6465   34.3951 C   0  0  0  0  0  0  0  0  0  0  0  0
  -15.3719  -10.4394   35.0246 C   0  0  0  0  0  0  0  0  0  0  0  0
  -15.8799  -10.7490   36.2475 N   0  0  0  0  0  0  0  0  0  0  0  0
  -16.0849  -12.0715   36.4336 N   0  0  0  0  0  0  0  0  0  0  0  0
  -16.8466  -14.1913   36.5749 H   0  0  0  0  0  0  0  0  0  0  0  0
  -17.1822  -16.4456   36.9696 H   0  0  0  0  0  0  0  0  0  0  0  0
  -15.5295  -16.2588   37.4989 H   0  0  0  0  0  0  0  0  0  0  0  0
  -17.8035  -17.7417   35.0578 H   0  0  0  0  0  0  0  0  0  0  0  0
  -12.9907  -21.7687   33.6586 H   0  0  0  0  0  0  0  0  0  0  0  0
  -12.2343  -19.5233   35.1131 H   0  0  0  0  0  0  0  0  0  0  0  0
  -13.6264  -17.4768   36.0884 H   0  0  0  0  0  0  0  0  0  0  0  0
  -14.7612  -11.8111   33.4118 H   0  0  0  0  0  0  0  0  0  0  0  0
  -15.1764   -9.4213   34.7228 H   0  0  0  0  0  0  0  0  0  0  0  0
  -16.1247  -10.1156   37.0023 H   0  0  0  0  0  0  0  0  0  0  0  0
  1  2  2  0
  2  3  1  0
  3  4  1  0
  4  5  1  0
  5  6  1  0
  6  7  2  0
  7  8  1  0
  8  9  2  0
  9 10  1  0
 10 11  2  0
 11 12  1  0
 12 13  1  0
  2 14  1  0
 14 15  1  0
 15 16  2  0
 16 17  1  0
 17 18  1  0
 13  5  2  0
 18 14  2  0
 12  8  1  0
  3 19  1  0
  4 20  1  0
  4 21  1  0
  6 22  1  0
 10 23  1  0
 11 24  1  0
 13 25  1  0
 15 26  1  0
 16 27  1  0
 17 28  1  0
M  END
>  <Energy>  (850) 
46.352410699024752

>  <compound_id>  (850) 
45291

>  <target_id>  (850) 
1

>  <reference_id>  (850) 
7

>  <inspiration_ids>  (850) 
[107, 7]

>  <energy_score>  (850) 
-19.63473686100204

>  <distance_score>  (850) 
9.631715937034489

>  <path>  (850) 
/opt/xchem-fragalysis-2/maxwin/BulkDock/SCRATCH/511022/C45291-P7/C45291-P7.minimised.mol

>  <scratch_subdir>  (850) 
/opt/xchem-fragalysis-2/maxwin/BulkDock/SCRATCH/511022/C45291-P7

>  <fragmenstein_runtime>  (850) 
9.876241207122803

>  <fragmenstein_outcome>  (850) 
too moved

>  <fragmenstein_mode>  (850) 
expansion

>  <fragmenstein_error>  (850) 


$$$$
C45292-P107
     RDKit          3D

 35 38  0  0  0  0  0  0  0  0999 V2000
  -16.8027  -11.3056   36.0845 O   0  0  0  0  0  0  0  0  0  0  0  0
  -15.9125  -11.8222   36.6958 C   0  0  0  0  0  0  0  0  0  0  0  0
  -15.0594  -12.9329   36.3561 N   0  0  0  0  0  0  0  0  0  0  0  0
  -14.9477  -13.7071   35.1364 C   0  0  0  0  0  0  0  0  0  0  0  0
  -14.7369  -15.1975   35.3422 C   0  0  0  0  0  0  0  0  0  0  0  0
  -13.7105  -15.9226   34.5058 C   0  0  0  0  0  0  0  0  0  0  0  0
  -13.6016  -17.2058   34.3342 N   0  0  0  0  0  0  0  0  0  0  0  0
  -14.5402  -17.9821   34.9280 C   0  0  0  0  0  0  0  0  0  0  0  0
  -14.8415  -19.2336   34.6569 N   0  0  0  0  0  0  0  0  0  0  0  0
  -15.9657  -19.5081   35.3868 C   0  0  0  0  0  0  0  0  0  0  0  0
  -16.3442  -18.4184   36.1339 C   0  0  0  0  0  0  0  0  0  0  0  0
  -15.4796  -17.4173   35.7757 N   0  0  0  0  0  0  0  0  0  0  0  0
  -15.5584  -16.0427   36.0006 C   0  0  0  0  0  0  0  0  0  0  0  0
  -15.6891  -11.2957   38.1261 C   0  0  0  0  0  0  0  0  0  0  0  0
  -15.4566   -9.7095   38.3020 C   0  0  0  0  0  0  0  0  0  0  0  0
  -16.4320   -8.7174   38.0366 C   0  0  0  0  0  0  0  0  0  0  0  0
  -15.9192   -7.5552   38.5683 C   0  0  0  0  0  0  0  0  0  0  0  0
  -14.7413   -7.9087   39.1580 N   0  0  0  0  0  0  0  0  0  0  0  0
  -14.3897   -9.1876   38.9244 N   0  0  0  0  0  0  0  0  0  0  0  0
  -15.2047  -12.2012   39.2556 C   0  0  0  0  0  0  0  0  0  0  0  0
  -16.6577  -11.8699   39.1741 C   0  0  0  0  0  0  0  0  0  0  0  0
  -14.3555  -13.0439   37.0810 H   0  0  0  0  0  0  0  0  0  0  0  0
  -15.8540  -13.5390   34.5440 H   0  0  0  0  0  0  0  0  0  0  0  0
  -14.1182  -13.2736   34.5723 H   0  0  0  0  0  0  0  0  0  0  0  0
  -12.9921  -15.2828   33.9743 H   0  0  0  0  0  0  0  0  0  0  0  0
  -16.4403  -20.4807   35.3404 H   0  0  0  0  0  0  0  0  0  0  0  0
  -17.1779  -18.2492   36.7994 H   0  0  0  0  0  0  0  0  0  0  0  0
  -16.4127  -15.6928   36.5695 H   0  0  0  0  0  0  0  0  0  0  0  0
  -17.3947   -8.8551   37.5636 H   0  0  0  0  0  0  0  0  0  0  0  0
  -16.3082   -6.5491   38.6306 H   0  0  0  0  0  0  0  0  0  0  0  0
  -14.0963   -7.3230   39.6803 H   0  0  0  0  0  0  0  0  0  0  0  0
  -14.6167  -11.7453   40.0452 H   0  0  0  0  0  0  0  0  0  0  0  0
  -14.9365  -13.2304   39.0612 H   0  0  0  0  0  0  0  0  0  0  0  0
  -17.3450  -12.6457   38.8548 H   0  0  0  0  0  0  0  0  0  0  0  0
  -17.0680  -11.2020   39.9227 H   0  0  0  0  0  0  0  0  0  0  0  0
  1  2  2  0
  2  3  1  0
  3  4  1  0
  4  5  1  0
  5  6  1  0
  6  7  2  0
  7  8  1  0
  8  9  2  0
  9 10  1  0
 10 11  2  0
 11 12  1  0
 12 13  1  0
  2 14  1  0
 14 15  1  0
 15 16  1  0
 16 17  2  0
 17 18  1  0
 18 19  1  0
 14 20  1  0
 20 21  1  0
 13  5  2  0
 21 14  1  0
 12  8  1  0
 19 15  2  0
  3 22  1  0
  4 23  1  0
  4 24  1  0
  6 25  1  0
 10 26  1  0
 11 27  1  0
 13 28  1  0
 16 29  1  0
 17 30  1  0
 18 31  1  0
 20 32  1  0
 20 33  1  0
 21 34  1  0
 21 35  1  0
M  END
>  <Energy>  (851) 
37.559759089035673

>  <compound_id>  (851) 
45292

>  <target_id>  (851) 
1

>  <reference_id>  (851) 
107

>  <inspiration_ids>  (851) 
[107, 7]

>  <energy_score>  (851) 
-18.509307527509606

>  <distance_score>  (851) 
9.280591450576981

>  <path>  (851) 
/opt/xchem-fragalysis-2/maxwin/BulkDock/SCRATCH/511022/C45292-P107/C45292-P107.minimised.mol

>  <scratch_subdir>  (851) 
/opt/xchem-fragalysis-2/maxwin/BulkDock/SCRATCH/511022/C45292-P107

>  <fragmenstein_runtime>  (851) 
20.679357528686523

>  <fragmenstein_outcome>  (851) 
too moved

>  <fragmenstein_mode>  (851) 
expansion

>  <fragmenstein_error>  (851) 


$$$$
C45292-P7
     RDKit          3D

 35 38  0  0  0  0  0  0  0  0999 V2000
  -12.3107  -10.2157   34.8135 O   0  0  0  0  0  0  0  0  0  0  0  0
  -13.3561   -9.8541   35.2387 C   0  0  0  0  0  0  0  0  0  0  0  0
  -14.6899  -10.4721   35.1485 N   0  0  0  0  0  0  0  0  0  0  0  0
  -15.1623  -11.6972   34.4055 C   0  0  0  0  0  0  0  0  0  0  0  0
  -15.1570  -13.1578   34.9131 C   0  0  0  0  0  0  0  0  0  0  0  0
  -14.2563  -14.1535   34.2262 C   0  0  0  0  0  0  0  0  0  0  0  0
  -14.0927  -15.4286   34.4139 N   0  0  0  0  0  0  0  0  0  0  0  0
  -14.9860  -16.0223   35.2341 C   0  0  0  0  0  0  0  0  0  0  0  0
  -15.1259  -17.2987   35.5157 N   0  0  0  0  0  0  0  0  0  0  0  0
  -16.2094  -17.3667   36.3449 C   0  0  0  0  0  0  0  0  0  0  0  0
  -16.7409  -16.1151   36.5655 C   0  0  0  0  0  0  0  0  0  0  0  0
  -15.9645  -15.2433   35.8449 N   0  0  0  0  0  0  0  0  0  0  0  0
  -16.0513  -13.8401   35.6724 C   0  0  0  0  0  0  0  0  0  0  0  0
  -13.2794   -8.2682   35.9869 C   0  0  0  0  0  0  0  0  0  0  0  0
  -11.7315   -6.6847   35.6076 C   0  0  0  0  0  0  0  0  0  0  0  0
  -12.2403   -4.9790   36.0704 C   0  0  0  0  0  0  0  0  0  0  0  0
  -11.1170   -4.2483   36.1717 C   0  0  0  0  0  0  0  0  0  0  0  0
  -10.2944   -5.2969   35.9198 N   0  0  0  0  0  0  0  0  0  0  0  0
  -10.7190   -6.2022   34.9640 N   0  0  0  0  0  0  0  0  0  0  0  0
  -13.7807   -8.6067   37.5242 C   0  0  0  0  0  0  0  0  0  0  0  0
  -14.6777   -7.7642   36.7034 C   0  0  0  0  0  0  0  0  0  0  0  0
  -15.3690   -9.8519   35.5525 H   0  0  0  0  0  0  0  0  0  0  0  0
  -14.6529  -11.6603   33.4429 H   0  0  0  0  0  0  0  0  0  0  0  0
  -16.2106  -11.4677   34.1903 H   0  0  0  0  0  0  0  0  0  0  0  0
  -13.6235  -13.7358   33.4652 H   0  0  0  0  0  0  0  0  0  0  0  0
  -16.5609  -18.3136   36.7350 H   0  0  0  0  0  0  0  0  0  0  0  0
  -17.5985  -15.7851   37.1331 H   0  0  0  0  0  0  0  0  0  0  0  0
  -16.8873  -13.3575   36.1637 H   0  0  0  0  0  0  0  0  0  0  0  0
  -13.2364   -4.7577   36.4651 H   0  0  0  0  0  0  0  0  0  0  0  0
  -10.8419   -3.2847   36.5710 H   0  0  0  0  0  0  0  0  0  0  0  0
   -9.2916   -5.3376   36.0709 H   0  0  0  0  0  0  0  0  0  0  0  0
  -14.0822   -9.6331   37.7306 H   0  0  0  0  0  0  0  0  0  0  0  0
  -13.3472   -8.1828   38.4208 H   0  0  0  0  0  0  0  0  0  0  0  0
  -15.6253   -8.1590   36.3641 H   0  0  0  0  0  0  0  0  0  0  0  0
  -14.7982   -6.7260   37.0060 H   0  0  0  0  0  0  0  0  0  0  0  0
  1  2  2  0
  2  3  1  0
  3  4  1  0
  4  5  1  0
  5  6  1  0
  6  7  2  0
  7  8  1  0
  8  9  2  0
  9 10  1  0
 10 11  2  0
 11 12  1  0
 12 13  1  0
  2 14  1  0
 14 15  1  0
 15 16  1  0
 16 17  2  0
 17 18  1  0
 18 19  1  0
 14 20  1  0
 20 21  1  0
 13  5  2  0
 21 14  1  0
 12  8  1  0
 19 15  2  0
  3 22  1  0
  4 23  1  0
  4 24  1  0
  6 25  1  0
 10 26  1  0
 11 27  1  0
 13 28  1  0
 16 29  1  0
 17 30  1  0
 18 31  1  0
 20 32  1  0
 20 33  1  0
 21 34  1  0
 21 35  1  0
M  END
>  <Energy>  (852) 
277.01018086193881

>  <compound_id>  (852) 
45292

>  <target_id>  (852) 
1

>  <reference_id>  (852) 
7

>  <inspiration_ids>  (852) 
[107, 7]

>  <energy_score>  (852) 
220.94111424539733

>  <distance_score>  (852) 
9.30350250374225

>  <path>  (852) 
/opt/xchem-fragalysis-2/maxwin/BulkDock/SCRATCH/511022/C45292-P7/C45292-P7.minimised.mol

>  <scratch_subdir>  (852) 
/opt/xchem-fragalysis-2/maxwin/BulkDock/SCRATCH/511022/C45292-P7

>  <fragmenstein_runtime>  (852) 
11.971519470214844

>  <fragmenstein_outcome>  (852) 
too moved

>  <fragmenstein_mode>  (852) 
expansion

>  <fragmenstein_error>  (852) 


$$$$
C45293-P107
     RDKit          3D

 41 43  0  0  0  0  0  0  0  0999 V2000
  -12.8088  -17.2196   33.8578 C   0  0  0  0  0  0  0  0  0  0  0  0
  -13.3606  -16.2977   32.5252 N   0  0  0  0  0  0  0  0  0  0  0  0
  -13.3795  -15.2980   33.7436 C   0  0  0  0  0  0  0  0  0  0  0  0
  -14.4054  -15.3869   34.9883 C   0  0  0  0  0  0  0  0  0  0  0  0
  -15.2657  -14.1250   35.2734 N   0  0  0  0  0  0  0  0  0  0  0  0
  -15.2596  -14.6971   36.6563 C   0  0  0  0  0  0  0  0  0  0  0  0
  -14.9089  -12.7484   35.3106 C   0  0  0  0  0  0  0  0  0  0  0  0
  -13.8399  -12.2213   35.2187 O   0  0  0  0  0  0  0  0  0  0  0  0
  -16.0486  -11.8308   35.6175 C   0  0  0  0  0  0  0  0  0  0  0  0
  -15.9354  -10.8056   36.6212 C   0  0  0  0  0  0  0  0  0  0  0  0
  -17.1619  -10.1991   36.6938 C   0  0  0  0  0  0  0  0  0  0  0  0
  -17.9401  -10.8743   35.8060 N   0  0  0  0  0  0  0  0  0  0  0  0
  -17.3120  -11.8764   35.1573 N   0  0  0  0  0  0  0  0  0  0  0  0
  -12.4258  -16.2759   31.0030 C   0  0  0  0  0  0  0  0  0  0  0  0
  -11.5931  -15.4459   30.8418 O   0  0  0  0  0  0  0  0  0  0  0  0
  -12.4843  -17.4892   29.4087 C   0  0  0  0  0  0  0  0  0  0  0  0
  -11.4578  -17.7533   28.6292 C   0  0  0  0  0  0  0  0  0  0  0  0
  -10.5767  -18.5881   29.2905 N   0  0  0  0  0  0  0  0  0  0  0  0
  -10.8149  -20.3733   29.5098 C   0  0  0  0  0  0  0  0  0  0  0  0
  -10.6271  -21.1702   30.5522 N   0  0  0  0  0  0  0  0  0  0  0  0
  -11.5125  -22.1941   30.3714 C   0  0  0  0  0  0  0  0  0  0  0  0
  -12.3078  -21.9077   29.2905 C   0  0  0  0  0  0  0  0  0  0  0  0
  -12.0720  -20.5672   29.0797 N   0  0  0  0  0  0  0  0  0  0  0  0
  -12.8333  -19.1457   29.0888 C   0  0  0  0  0  0  0  0  0  0  0  0
  -13.6454  -17.4145   34.5360 H   0  0  0  0  0  0  0  0  0  0  0  0
  -11.9319  -16.8788   34.4408 H   0  0  0  0  0  0  0  0  0  0  0  0
  -12.6853  -18.2789   33.6199 H   0  0  0  0  0  0  0  0  0  0  0  0
  -12.3467  -15.1853   34.0730 H   0  0  0  0  0  0  0  0  0  0  0  0
  -13.4993  -14.2907   33.3527 H   0  0  0  0  0  0  0  0  0  0  0  0
  -13.6633  -15.6070   35.7783 H   0  0  0  0  0  0  0  0  0  0  0  0
  -15.0854  -16.2390   34.8879 H   0  0  0  0  0  0  0  0  0  0  0  0
  -14.3359  -14.5522   37.2173 H   0  0  0  0  0  0  0  0  0  0  0  0
  -15.6922  -15.7053   36.7546 H   0  0  0  0  0  0  0  0  0  0  0  0
  -15.9769  -14.0812   37.2204 H   0  0  0  0  0  0  0  0  0  0  0  0
  -15.0429  -10.5805   37.1913 H   0  0  0  0  0  0  0  0  0  0  0  0
  -17.5449   -9.3883   37.2962 H   0  0  0  0  0  0  0  0  0  0  0  0
  -18.9248  -10.7277   35.6087 H   0  0  0  0  0  0  0  0  0  0  0  0
  -11.2703  -17.0485   27.7747 H   0  0  0  0  0  0  0  0  0  0  0  0
  -11.4878  -23.0916   30.9783 H   0  0  0  0  0  0  0  0  0  0  0  0
  -12.9922  -22.5551   28.7722 H   0  0  0  0  0  0  0  0  0  0  0  0
  -13.8752  -19.5358   29.2375 H   0  0  0  0  0  0  0  0  0  0  0  0
  1  2  1  0
  2  3  1  0
  3  4  1  0
  4  5  1  0
  5  6  1  0
  5  7  1  0
  7  8  2  0
  7  9  1  0
  9 10  1  0
 10 11  2  0
 11 12  1  0
 12 13  1  0
  2 14  1  0
 14 15  2  0
 14 16  1  0
 16 17  1  0
 17 18  2  0
 18 19  1  0
 19 20  2  0
 20 21  1  0
 21 22  2  0
 22 23  1  0
 23 24  1  0
 13  9  2  0
 24 16  2  0
 23 19  1  0
  1 25  1  0
  1 26  1  0
  1 27  1  0
  3 28  1  0
  3 29  1  0
  4 30  1  0
  4 31  1  0
  6 32  1  0
  6 33  1  0
  6 34  1  0
 10 35  1  0
 11 36  1  0
 12 37  1  0
 17 38  1  0
 21 39  1  0
 22 40  1  0
 24 41  1  0
M  END
>  <Energy>  (853) 
709.5876785076839

>  <compound_id>  (853) 
45293

>  <target_id>  (853) 
1

>  <reference_id>  (853) 
107

>  <inspiration_ids>  (853) 
[107, 7]

>  <energy_score>  (853) 
614.5706698380518

>  <distance_score>  (853) 
8.218675116939552

>  <path>  (853) 
/opt/xchem-fragalysis-2/maxwin/BulkDock/SCRATCH/511022/C45293-P107/C45293-P107.minimised.mol

>  <scratch_subdir>  (853) 
/opt/xchem-fragalysis-2/maxwin/BulkDock/SCRATCH/511022/C45293-P107

>  <fragmenstein_runtime>  (853) 
14.40345048904419

>  <fragmenstein_outcome>  (853) 
too moved

>  <fragmenstein_mode>  (853) 
expansion

>  <fragmenstein_error>  (853) 


$$$$
C45293-P7
     RDKit          3D

 41 43  0  0  0  0  0  0  0  0999 V2000
  -15.9584  -12.8241   33.3493 C   0  0  0  0  0  0  0  0  0  0  0  0
  -15.0424  -12.9053   34.4925 N   0  0  0  0  0  0  0  0  0  0  0  0
  -14.9552  -11.3824   34.2396 C   0  0  0  0  0  0  0  0  0  0  0  0
  -14.4845  -10.5870   35.4373 C   0  0  0  0  0  0  0  0  0  0  0  0
  -13.3893   -9.5528   35.3078 N   0  0  0  0  0  0  0  0  0  0  0  0
  -12.6170  -10.6277   36.0401 C   0  0  0  0  0  0  0  0  0  0  0  0
  -13.1990   -8.1810   35.9878 C   0  0  0  0  0  0  0  0  0  0  0  0
  -13.9190   -7.7536   36.8559 O   0  0  0  0  0  0  0  0  0  0  0  0
  -11.7274   -6.8069   35.5774 C   0  0  0  0  0  0  0  0  0  0  0  0
  -12.2157   -5.0450   36.0218 C   0  0  0  0  0  0  0  0  0  0  0  0
  -11.1329   -4.2592   36.1503 C   0  0  0  0  0  0  0  0  0  0  0  0
  -10.2999   -5.3140   35.9979 N   0  0  0  0  0  0  0  0  0  0  0  0
  -10.7062   -6.2355   34.9689 N   0  0  0  0  0  0  0  0  0  0  0  0
  -15.6460  -13.6431   35.5546 C   0  0  0  0  0  0  0  0  0  0  0  0
  -16.3180  -13.2720   36.4801 O   0  0  0  0  0  0  0  0  0  0  0  0
  -15.4054  -15.1490   35.3716 C   0  0  0  0  0  0  0  0  0  0  0  0
  -14.3307  -15.7532   34.4910 C   0  0  0  0  0  0  0  0  0  0  0  0
  -14.0676  -17.0156   34.3320 N   0  0  0  0  0  0  0  0  0  0  0  0
  -14.9254  -17.8929   34.9135 C   0  0  0  0  0  0  0  0  0  0  0  0
  -15.1055  -19.1562   34.5995 N   0  0  0  0  0  0  0  0  0  0  0  0
  -16.2020  -19.5611   35.3089 C   0  0  0  0  0  0  0  0  0  0  0  0
  -16.6925  -18.5322   36.0797 C   0  0  0  0  0  0  0  0  0  0  0  0
  -15.9328  -17.4411   35.7494 N   0  0  0  0  0  0  0  0  0  0  0  0
  -16.1360  -16.0870   36.0136 C   0  0  0  0  0  0  0  0  0  0  0  0
  -15.5448  -12.4391   32.4135 H   0  0  0  0  0  0  0  0  0  0  0  0
  -16.1812  -13.8607   33.1682 H   0  0  0  0  0  0  0  0  0  0  0  0
  -16.9525  -12.4455   33.6235 H   0  0  0  0  0  0  0  0  0  0  0  0
  -14.2253  -11.2149   33.4534 H   0  0  0  0  0  0  0  0  0  0  0  0
  -15.8990  -10.8734   33.9855 H   0  0  0  0  0  0  0  0  0  0  0  0
  -14.6213  -11.0999   36.4115 H   0  0  0  0  0  0  0  0  0  0  0  0
  -15.3196   -9.8746   35.5818 H   0  0  0  0  0  0  0  0  0  0  0  0
  -11.5651  -10.4943   35.7898 H   0  0  0  0  0  0  0  0  0  0  0  0
  -12.7194  -10.5251   37.1310 H   0  0  0  0  0  0  0  0  0  0  0  0
  -12.7736  -11.6654   35.7215 H   0  0  0  0  0  0  0  0  0  0  0  0
  -13.2201   -4.8435   36.4174 H   0  0  0  0  0  0  0  0  0  0  0  0
  -10.9052   -3.3000   36.5865 H   0  0  0  0  0  0  0  0  0  0  0  0
   -9.3509   -5.3830   36.3723 H   0  0  0  0  0  0  0  0  0  0  0  0
  -13.6824  -15.0312   33.9712 H   0  0  0  0  0  0  0  0  0  0  0  0
  -16.5694  -20.5785   35.2407 H   0  0  0  0  0  0  0  0  0  0  0  0
  -17.5347  -18.4717   36.7536 H   0  0  0  0  0  0  0  0  0  0  0  0
  -16.9532  -15.8341   36.6798 H   0  0  0  0  0  0  0  0  0  0  0  0
  1  2  1  0
  2  3  1  0
  3  4  1  0
  4  5  1  0
  5  6  1  0
  5  7  1  0
  7  8  2  0
  7  9  1  0
  9 10  1  0
 10 11  2  0
 11 12  1  0
 12 13  1  0
  2 14  1  0
 14 15  2  0
 14 16  1  0
 16 17  1  0
 17 18  2  0
 18 19  1  0
 19 20  2  0
 20 21  1  0
 21 22  2  0
 22 23  1  0
 23 24  1  0
 13  9  2  0
 24 16  2  0
 23 19  1  0
  1 25  1  0
  1 26  1  0
  1 27  1  0
  3 28  1  0
  3 29  1  0
  4 30  1  0
  4 31  1  0
  6 32  1  0
  6 33  1  0
  6 34  1  0
 10 35  1  0
 11 36  1  0
 12 37  1  0
 17 38  1  0
 21 39  1  0
 22 40  1  0
 24 41  1  0
M  END
>  <Energy>  (854) 
429.84390904079584

>  <compound_id>  (854) 
45293

>  <target_id>  (854) 
1

>  <reference_id>  (854) 
7

>  <inspiration_ids>  (854) 
[107, 7]

>  <energy_score>  (854) 
334.82690037116896

>  <distance_score>  (854) 
8.063528702067616

>  <path>  (854) 
/opt/xchem-fragalysis-2/maxwin/BulkDock/SCRATCH/511022/C45293-P7/C45293-P7.minimised.mol

>  <scratch_subdir>  (854) 
/opt/xchem-fragalysis-2/maxwin/BulkDock/SCRATCH/511022/C45293-P7

>  <fragmenstein_runtime>  (854) 
19.77621030807495

>  <fragmenstein_outcome>  (854) 
too moved

>  <fragmenstein_mode>  (854) 
expansion

>  <fragmenstein_error>  (854) 


$$$$
C48978-P107
     RDKit          3D

 41 44  0  0  0  0  0  0  0  0999 V2000
  -14.2066  -17.7840   38.2654 C   0  0  0  0  0  0  0  0  0  0  0  0
  -15.6086  -18.0703   37.7379 C   0  0  0  0  0  0  0  0  0  0  0  0
  -15.8918  -17.5048   36.3229 C   0  0  0  0  0  0  0  0  0  0  0  0
  -15.6645  -16.0631   36.2927 N   0  0  0  0  0  0  0  0  0  0  0  0
  -16.2110  -15.0034   37.1070 C   0  0  0  0  0  0  0  0  0  0  0  0
  -16.9293  -15.0467   38.0654 O   0  0  0  0  0  0  0  0  0  0  0  0
  -15.7423  -13.6220   36.7335 C   0  0  0  0  0  0  0  0  0  0  0  0
  -15.1196  -13.2782   35.5756 N   0  0  0  0  0  0  0  0  0  0  0  0
  -14.7413  -11.9703   35.7533 N   0  0  0  0  0  0  0  0  0  0  0  0
  -15.1844  -11.4670   36.9274 C   0  0  0  0  0  0  0  0  0  0  0  0
  -15.8308  -12.4762   37.5678 C   0  0  0  0  0  0  0  0  0  0  0  0
  -16.2190  -12.0795   38.9361 C   0  0  0  0  0  0  0  0  0  0  0  0
  -15.2990  -10.8414   39.1736 C   0  0  0  0  0  0  0  0  0  0  0  0
  -14.9567  -10.2769   37.7567 C   0  0  0  0  0  0  0  0  0  0  0  0
  -15.2770  -18.4085   35.2562 C   0  0  0  0  0  0  0  0  0  0  0  0
  -15.9537  -19.3617   34.5037 C   0  0  0  0  0  0  0  0  0  0  0  0
  -15.0042  -20.2134   33.9987 N   0  0  0  0  0  0  0  0  0  0  0  0
  -15.1466  -21.3790   33.2529 C   0  0  0  0  0  0  0  0  0  0  0  0
  -14.0588  -22.0870   32.9195 C   0  0  0  0  0  0  0  0  0  0  0  0
  -12.7732  -21.5157   33.4021 C   0  0  0  0  0  0  0  0  0  0  0  0
  -12.6239  -20.4161   34.0806 N   0  0  0  0  0  0  0  0  0  0  0  0
  -13.7639  -19.7316   34.4103 C   0  0  0  0  0  0  0  0  0  0  0  0
  -13.9179  -18.6153   35.1072 N   0  0  0  0  0  0  0  0  0  0  0  0
  -14.0236  -16.7095   38.3516 H   0  0  0  0  0  0  0  0  0  0  0  0
  -14.0905  -18.2176   39.2641 H   0  0  0  0  0  0  0  0  0  0  0  0
  -13.4329  -18.2138   37.6247 H   0  0  0  0  0  0  0  0  0  0  0  0
  -15.7783  -19.1544   37.7494 H   0  0  0  0  0  0  0  0  0  0  0  0
  -16.3272  -17.6423   38.4478 H   0  0  0  0  0  0  0  0  0  0  0  0
  -16.9800  -17.5910   36.1888 H   0  0  0  0  0  0  0  0  0  0  0  0
  -15.1610  -15.6523   35.5093 H   0  0  0  0  0  0  0  0  0  0  0  0
  -14.1235  -11.5454   35.0658 H   0  0  0  0  0  0  0  0  0  0  0  0
  -16.0303  -12.8574   39.6806 H   0  0  0  0  0  0  0  0  0  0  0  0
  -17.2740  -11.7887   38.9697 H   0  0  0  0  0  0  0  0  0  0  0  0
  -15.7646  -10.0924   39.8214 H   0  0  0  0  0  0  0  0  0  0  0  0
  -14.3712  -11.1720   39.6597 H   0  0  0  0  0  0  0  0  0  0  0  0
  -15.6695   -9.4837   37.5205 H   0  0  0  0  0  0  0  0  0  0  0  0
  -13.9304   -9.9085   37.7206 H   0  0  0  0  0  0  0  0  0  0  0  0
  -17.0096  -19.5639   34.3930 H   0  0  0  0  0  0  0  0  0  0  0  0
  -16.1484  -21.6909   32.9835 H   0  0  0  0  0  0  0  0  0  0  0  0
  -14.0703  -23.0160   32.3676 H   0  0  0  0  0  0  0  0  0  0  0  0
  -11.8792  -22.1007   33.1320 H   0  0  0  0  0  0  0  0  0  0  0  0
  1  2  1  0
  2  3  1  0
  3  4  1  0
  4  5  1  0
  5  6  2  0
  5  7  1  0
  7  8  2  0
  8  9  1  0
  9 10  1  0
 10 11  2  0
 11 12  1  0
 12 13  1  0
 13 14  1  0
  3 15  1  0
 15 16  2  0
 16 17  1  0
 17 18  1  0
 18 19  2  0
 19 20  1  0
 20 21  2  0
 21 22  1  0
 22 23  2  0
 11  7  1  0
 23 15  1  0
 14 10  1  0
 22 17  1  0
  1 24  1  0
  1 25  1  0
  1 26  1  0
  2 27  1  0
  2 28  1  0
  3 29  1  0
  4 30  1  0
  9 31  1  0
 12 32  1  0
 12 33  1  0
 13 34  1  0
 13 35  1  0
 14 36  1  0
 14 37  1  0
 16 38  1  0
 18 39  1  0
 19 40  1  0
 20 41  1  0
M  END
>  <Energy>  (855) 
87.186782587559321

>  <compound_id>  (855) 
48978

>  <target_id>  (855) 
1

>  <reference_id>  (855) 
107

>  <inspiration_ids>  (855) 
[107, 7]

>  <energy_score>  (855) 
-30.15655766867644

>  <distance_score>  (855) 
8.803432756019841

>  <path>  (855) 
/opt/xchem-fragalysis-2/maxwin/BulkDock/SCRATCH/511022/C48978-P107/C48978-P107.minimised.mol

>  <scratch_subdir>  (855) 
/opt/xchem-fragalysis-2/maxwin/BulkDock/SCRATCH/511022/C48978-P107

>  <fragmenstein_runtime>  (855) 
20.491967916488647

>  <fragmenstein_outcome>  (855) 
too moved

>  <fragmenstein_mode>  (855) 
expansion

>  <fragmenstein_error>  (855) 


$$$$
C48978-P7
     RDKit          3D

 41 44  0  0  0  0  0  0  0  0999 V2000
  -16.6029   -9.6431   35.5544 C   0  0  0  0  0  0  0  0  0  0  0  0
  -15.5001  -10.0275   34.5718 C   0  0  0  0  0  0  0  0  0  0  0  0
  -14.2745  -10.7167   35.2561 C   0  0  0  0  0  0  0  0  0  0  0  0
  -13.2015   -9.6148   35.2419 N   0  0  0  0  0  0  0  0  0  0  0  0
  -13.1581   -8.1090   35.9731 C   0  0  0  0  0  0  0  0  0  0  0  0
  -14.0097   -7.7326   36.7251 O   0  0  0  0  0  0  0  0  0  0  0  0
  -11.8046   -6.5517   35.6356 C   0  0  0  0  0  0  0  0  0  0  0  0
  -10.7383   -5.7855   35.3527 N   0  0  0  0  0  0  0  0  0  0  0  0
  -11.0684   -4.3968   35.6195 N   0  0  0  0  0  0  0  0  0  0  0  0
  -11.9015   -4.0136   36.5588 C   0  0  0  0  0  0  0  0  0  0  0  0
  -12.7535   -5.0129   36.2733 C   0  0  0  0  0  0  0  0  0  0  0  0
  -14.1356   -4.6958   36.8710 C   0  0  0  0  0  0  0  0  0  0  0  0
  -13.8608   -3.3318   37.6040 C   0  0  0  0  0  0  0  0  0  0  0  0
  -12.4898   -2.7846   37.0892 C   0  0  0  0  0  0  0  0  0  0  0  0
  -14.4465  -12.2541   34.9907 C   0  0  0  0  0  0  0  0  0  0  0  0
  -15.5596  -13.0350   35.3646 C   0  0  0  0  0  0  0  0  0  0  0  0
  -15.2745  -14.3540   35.0693 N   0  0  0  0  0  0  0  0  0  0  0  0
  -15.7951  -15.5438   35.5926 C   0  0  0  0  0  0  0  0  0  0  0  0
  -15.1341  -16.7022   35.4052 C   0  0  0  0  0  0  0  0  0  0  0  0
  -13.8731  -16.5855   34.6186 C   0  0  0  0  0  0  0  0  0  0  0  0
  -13.3957  -15.4888   34.1187 N   0  0  0  0  0  0  0  0  0  0  0  0
  -14.0985  -14.3363   34.3465 C   0  0  0  0  0  0  0  0  0  0  0  0
  -13.6086  -13.1076   34.3366 N   0  0  0  0  0  0  0  0  0  0  0  0
  -17.3914   -9.0851   35.0399 H   0  0  0  0  0  0  0  0  0  0  0  0
  -17.0597  -10.5248   36.0106 H   0  0  0  0  0  0  0  0  0  0  0  0
  -16.2208   -9.0061   36.3562 H   0  0  0  0  0  0  0  0  0  0  0  0
  -15.9070  -10.6822   33.7975 H   0  0  0  0  0  0  0  0  0  0  0  0
  -15.2009   -9.1190   34.0433 H   0  0  0  0  0  0  0  0  0  0  0  0
  -14.4799  -10.6991   36.3387 H   0  0  0  0  0  0  0  0  0  0  0  0
  -12.3417   -9.7434   34.7228 H   0  0  0  0  0  0  0  0  0  0  0  0
  -10.9217   -3.7176   34.8877 H   0  0  0  0  0  0  0  0  0  0  0  0
  -14.4913   -5.4377   37.5901 H   0  0  0  0  0  0  0  0  0  0  0  0
  -14.9019   -4.5623   36.1046 H   0  0  0  0  0  0  0  0  0  0  0  0
  -14.6736   -2.6144   37.4548 H   0  0  0  0  0  0  0  0  0  0  0  0
  -13.7881   -3.5214   38.6830 H   0  0  0  0  0  0  0  0  0  0  0  0
  -12.6422   -2.0393   36.3024 H   0  0  0  0  0  0  0  0  0  0  0  0
  -11.9074   -2.3454   37.9027 H   0  0  0  0  0  0  0  0  0  0  0  0
  -16.4554  -12.7768   35.9093 H   0  0  0  0  0  0  0  0  0  0  0  0
  -16.7102  -15.4693   36.1683 H   0  0  0  0  0  0  0  0  0  0  0  0
  -15.4484  -17.6607   35.7927 H   0  0  0  0  0  0  0  0  0  0  0  0
  -13.3167  -17.5273   34.4801 H   0  0  0  0  0  0  0  0  0  0  0  0
  1  2  1  0
  2  3  1  0
  3  4  1  0
  4  5  1  0
  5  6  2  0
  5  7  1  0
  7  8  2  0
  8  9  1  0
  9 10  1  0
 10 11  2  0
 11 12  1  0
 12 13  1  0
 13 14  1  0
  3 15  1  0
 15 16  2  0
 16 17  1  0
 17 18  1  0
 18 19  2  0
 19 20  1  0
 20 21  2  0
 21 22  1  0
 22 23  2  0
 11  7  1  0
 23 15  1  0
 14 10  1  0
 22 17  1  0
  1 24  1  0
  1 25  1  0
  1 26  1  0
  2 27  1  0
  2 28  1  0
  3 29  1  0
  4 30  1  0
  9 31  1  0
 12 32  1  0
 12 33  1  0
 13 34  1  0
 13 35  1  0
 14 36  1  0
 14 37  1  0
 16 38  1  0
 18 39  1  0
 19 40  1  0
 20 41  1  0
M  END
>  <Energy>  (856) 
413.23749281568115

>  <compound_id>  (856) 
48978

>  <target_id>  (856) 
1

>  <reference_id>  (856) 
7

>  <inspiration_ids>  (856) 
[107, 7]

>  <energy_score>  (856) 
295.89415255944306

>  <distance_score>  (856) 
8.971091252482957

>  <path>  (856) 
/opt/xchem-fragalysis-2/maxwin/BulkDock/SCRATCH/511022/C48978-P7/C48978-P7.minimised.mol

>  <scratch_subdir>  (856) 
/opt/xchem-fragalysis-2/maxwin/BulkDock/SCRATCH/511022/C48978-P7

>  <fragmenstein_runtime>  (856) 
8.665076494216919

>  <fragmenstein_outcome>  (856) 
too moved

>  <fragmenstein_mode>  (856) 
expansion

>  <fragmenstein_error>  (856) 


$$$$
C45294-P107
     RDKit          3D

 39 41  0  0  0  0  0  0  0  0999 V2000
  -10.2711  -20.0658   31.8365 O   0  0  0  0  0  0  0  0  0  0  0  0
  -10.5630  -19.7478   30.6245 C   0  0  0  0  0  0  0  0  0  0  0  0
  -10.8649  -17.7415   29.8911 N   0  0  0  0  0  0  0  0  0  0  0  0
  -10.9489  -15.7706   30.9886 C   0  0  0  0  0  0  0  0  0  0  0  0
   -9.4577  -14.1762   31.8922 C   0  0  0  0  0  0  0  0  0  0  0  0
  -10.1914  -14.9444   33.2261 O   0  0  0  0  0  0  0  0  0  0  0  0
   -9.4457  -11.8157   32.2990 C   0  0  0  0  0  0  0  0  0  0  0  0
  -10.4679   -9.9163   32.8903 N   0  0  0  0  0  0  0  0  0  0  0  0
   -9.8603   -8.0785   33.2355 C   0  0  0  0  0  0  0  0  0  0  0  0
   -8.7509   -7.5941   33.0762 O   0  0  0  0  0  0  0  0  0  0  0  0
  -11.0287   -6.7262   34.1358 C   0  0  0  0  0  0  0  0  0  0  0  0
  -12.5404   -6.1295   35.0138 C   0  0  0  0  0  0  0  0  0  0  0  0
  -12.6374   -4.9024   35.5507 C   0  0  0  0  0  0  0  0  0  0  0  0
  -11.3689   -4.7579   35.5229 N   0  0  0  0  0  0  0  0  0  0  0  0
  -10.5358   -5.8745   35.0664 N   0  0  0  0  0  0  0  0  0  0  0  0
  -10.8466  -21.1316   29.7264 C   0  0  0  0  0  0  0  0  0  0  0  0
  -11.4317  -22.1626   30.7962 C   0  0  0  0  0  0  0  0  0  0  0  0
  -11.8737  -23.3718   30.6596 N   0  0  0  0  0  0  0  0  0  0  0  0
  -11.8900  -23.8510   29.4056 C   0  0  0  0  0  0  0  0  0  0  0  0
  -12.2730  -25.0289   28.9639 N   0  0  0  0  0  0  0  0  0  0  0  0
  -12.1914  -24.9628   27.6086 C   0  0  0  0  0  0  0  0  0  0  0  0
  -11.7400  -23.7311   27.2111 C   0  0  0  0  0  0  0  0  0  0  0  0
  -11.4969  -23.0353   28.3666 N   0  0  0  0  0  0  0  0  0  0  0  0
  -11.0074  -21.7383   28.5324 C   0  0  0  0  0  0  0  0  0  0  0  0
  -11.1788  -17.7702   28.8959 H   0  0  0  0  0  0  0  0  0  0  0  0
  -11.5145  -15.1270   30.2789 H   0  0  0  0  0  0  0  0  0  0  0  0
  -11.7848  -15.8291   31.7093 H   0  0  0  0  0  0  0  0  0  0  0  0
   -8.4506  -14.6129   32.0658 H   0  0  0  0  0  0  0  0  0  0  0  0
   -9.4126  -15.2999   33.6978 H   0  0  0  0  0  0  0  0  0  0  0  0
   -8.7147  -11.9731   33.1360 H   0  0  0  0  0  0  0  0  0  0  0  0
   -8.7241  -11.1251   31.8034 H   0  0  0  0  0  0  0  0  0  0  0  0
  -11.4319  -10.0298   33.2061 H   0  0  0  0  0  0  0  0  0  0  0  0
  -13.4099   -6.7484   35.1582 H   0  0  0  0  0  0  0  0  0  0  0  0
  -13.2758   -4.3540   36.2243 H   0  0  0  0  0  0  0  0  0  0  0  0
  -10.8966   -4.1508   36.1814 H   0  0  0  0  0  0  0  0  0  0  0  0
  -11.4877  -21.7867   31.8295 H   0  0  0  0  0  0  0  0  0  0  0  0
  -12.4816  -25.7978   26.9858 H   0  0  0  0  0  0  0  0  0  0  0  0
  -11.5995  -23.3066   26.2306 H   0  0  0  0  0  0  0  0  0  0  0  0
  -10.8172  -21.2982   27.5824 H   0  0  0  0  0  0  0  0  0  0  0  0
  1  2  2  0
  2  3  1  0
  3  4  1  0
  4  5  1  0
  5  6  1  0
  5  7  1  0
  7  8  1  0
  8  9  1  0
  9 10  2  0
  9 11  1  0
 11 12  1  0
 12 13  2  0
 13 14  1  0
 14 15  1  0
  2 16  1  0
 16 17  1  0
 17 18  2  0
 18 19  1  0
 19 20  2  0
 20 21  1  0
 21 22  2  0
 22 23  1  0
 23 24  1  0
 15 11  2  0
 24 16  2  0
 23 19  1  0
  3 25  1  0
  4 26  1  0
  4 27  1  0
  5 28  1  0
  6 29  1  0
  7 30  1  0
  7 31  1  0
  8 32  1  0
 12 33  1  0
 13 34  1  0
 14 35  1  0
 17 36  1  0
 21 37  1  0
 22 38  1  0
 24 39  1  0
M  END
>  <Energy>  (857) 
1738.8872966137919

>  <compound_id>  (857) 
45294

>  <target_id>  (857) 
1

>  <reference_id>  (857) 
107

>  <inspiration_ids>  (857) 
[107, 7]

>  <energy_score>  (857) 
1637.9681954340365

>  <distance_score>  (857) 
4.798965616011781

>  <path>  (857) 
/opt/xchem-fragalysis-2/maxwin/BulkDock/SCRATCH/511022/C45294-P107/C45294-P107.minimised.mol

>  <scratch_subdir>  (857) 
/opt/xchem-fragalysis-2/maxwin/BulkDock/SCRATCH/511022/C45294-P107

>  <fragmenstein_runtime>  (857) 
14.724605798721313

>  <fragmenstein_outcome>  (857) 
too moved

>  <fragmenstein_mode>  (857) 
expansion

>  <fragmenstein_error>  (857) 


$$$$
C45294-P7
     RDKit          3D

 39 41  0  0  0  0  0  0  0  0999 V2000
   -6.2942  -17.3425   32.9084 O   0  0  0  0  0  0  0  0  0  0  0  0
   -7.4451  -17.1837   33.2193 C   0  0  0  0  0  0  0  0  0  0  0  0
   -8.3299  -15.9207   33.1501 N   0  0  0  0  0  0  0  0  0  0  0  0
   -7.9419  -14.1994   32.5912 C   0  0  0  0  0  0  0  0  0  0  0  0
   -8.7212  -12.3789   33.0853 C   0  0  0  0  0  0  0  0  0  0  0  0
   -9.7262  -13.2900   32.8586 O   0  0  0  0  0  0  0  0  0  0  0  0
   -9.3397  -10.6861   32.2205 C   0  0  0  0  0  0  0  0  0  0  0  0
  -10.2723   -9.1988   33.1966 N   0  0  0  0  0  0  0  0  0  0  0  0
   -9.7451   -7.4191   33.5863 C   0  0  0  0  0  0  0  0  0  0  0  0
   -8.7186   -6.9576   33.1552 O   0  0  0  0  0  0  0  0  0  0  0  0
  -10.6674   -6.1512   34.8606 C   0  0  0  0  0  0  0  0  0  0  0  0
  -11.4043   -4.4950   35.0215 C   0  0  0  0  0  0  0  0  0  0  0  0
  -11.5920   -3.8964   36.2170 C   0  0  0  0  0  0  0  0  0  0  0  0
  -10.7806   -4.7134   36.8142 N   0  0  0  0  0  0  0  0  0  0  0  0
  -10.0472   -5.5962   36.0601 N   0  0  0  0  0  0  0  0  0  0  0  0
   -8.1771  -18.7235   33.6997 C   0  0  0  0  0  0  0  0  0  0  0  0
   -9.6976  -18.9049   33.3824 C   0  0  0  0  0  0  0  0  0  0  0  0
  -10.4336  -19.7629   32.6994 N   0  0  0  0  0  0  0  0  0  0  0  0
   -9.8959  -20.9741   32.3281 C   0  0  0  0  0  0  0  0  0  0  0  0
  -10.5919  -22.1281   32.2694 N   0  0  0  0  0  0  0  0  0  0  0  0
   -9.7712  -23.1169   32.8158 C   0  0  0  0  0  0  0  0  0  0  0  0
   -8.6044  -22.5707   33.3359 C   0  0  0  0  0  0  0  0  0  0  0  0
   -8.4991  -21.2343   33.0597 N   0  0  0  0  0  0  0  0  0  0  0  0
   -7.6802  -20.0331   33.8220 C   0  0  0  0  0  0  0  0  0  0  0  0
   -9.2268  -16.1169   33.5696 H   0  0  0  0  0  0  0  0  0  0  0  0
   -7.3250  -13.9594   33.4291 H   0  0  0  0  0  0  0  0  0  0  0  0
   -7.4421  -14.2566   31.6148 H   0  0  0  0  0  0  0  0  0  0  0  0
   -7.9110  -11.9417   32.4123 H   0  0  0  0  0  0  0  0  0  0  0  0
   -9.7424  -14.1071   33.3915 H   0  0  0  0  0  0  0  0  0  0  0  0
   -8.6121  -10.5411   31.4630 H   0  0  0  0  0  0  0  0  0  0  0  0
   -9.9757  -10.9405   31.4464 H   0  0  0  0  0  0  0  0  0  0  0  0
  -11.0995   -9.4162   33.7110 H   0  0  0  0  0  0  0  0  0  0  0  0
  -11.5285   -3.7564   34.2162 H   0  0  0  0  0  0  0  0  0  0  0  0
  -12.0196   -2.9775   36.5878 H   0  0  0  0  0  0  0  0  0  0  0  0
  -10.6121   -4.7035   37.8150 H   0  0  0  0  0  0  0  0  0  0  0  0
  -10.2475  -18.0608   33.8368 H   0  0  0  0  0  0  0  0  0  0  0  0
  -10.1438  -24.1210   32.9642 H   0  0  0  0  0  0  0  0  0  0  0  0
   -8.0533  -22.8117   34.2128 H   0  0  0  0  0  0  0  0  0  0  0  0
   -6.6492  -20.3048   33.9921 H   0  0  0  0  0  0  0  0  0  0  0  0
  1  2  2  0
  2  3  1  0
  3  4  1  0
  4  5  1  0
  5  6  1  0
  5  7  1  0
  7  8  1  0
  8  9  1  0
  9 10  2  0
  9 11  1  0
 11 12  1  0
 12 13  2  0
 13 14  1  0
 14 15  1  0
  2 16  1  0
 16 17  1  0
 17 18  2  0
 18 19  1  0
 19 20  2  0
 20 21  1  0
 21 22  2  0
 22 23  1  0
 23 24  1  0
 15 11  2  0
 24 16  2  0
 23 19  1  0
  3 25  1  0
  4 26  1  0
  4 27  1  0
  5 28  1  0
  6 29  1  0
  7 30  1  0
  7 31  1  0
  8 32  1  0
 12 33  1  0
 13 34  1  0
 14 35  1  0
 17 36  1  0
 21 37  1  0
 22 38  1  0
 24 39  1  0
M  END
>  <Energy>  (858) 
842.10260084326205

>  <compound_id>  (858) 
45294

>  <target_id>  (858) 
1

>  <reference_id>  (858) 
7

>  <inspiration_ids>  (858) 
[107, 7]

>  <energy_score>  (858) 
741.1834996634889

>  <distance_score>  (858) 
5.367283265593868

>  <path>  (858) 
/opt/xchem-fragalysis-2/maxwin/BulkDock/SCRATCH/511022/C45294-P7/C45294-P7.minimised.mol

>  <scratch_subdir>  (858) 
/opt/xchem-fragalysis-2/maxwin/BulkDock/SCRATCH/511022/C45294-P7

>  <fragmenstein_runtime>  (858) 
13.130226850509644

>  <fragmenstein_outcome>  (858) 
too moved

>  <fragmenstein_mode>  (858) 
expansion

>  <fragmenstein_error>  (858) 


$$$$
C45295-P107
     RDKit          3D

 41 43  0  0  0  0  0  0  0  0999 V2000
   -7.5289  -15.7915   33.4017 C   0  0  0  0  0  0  0  0  0  0  0  0
   -8.6334  -14.5791   32.5772 C   0  0  0  0  0  0  0  0  0  0  0  0
   -8.8586  -12.6037   33.0504 C   0  0  0  0  0  0  0  0  0  0  0  0
   -9.2747  -10.8277   32.2083 C   0  0  0  0  0  0  0  0  0  0  0  0
  -10.2446   -9.3948   33.1944 N   0  0  0  0  0  0  0  0  0  0  0  0
   -9.9088   -7.6235   33.3711 C   0  0  0  0  0  0  0  0  0  0  0  0
   -8.9343   -7.0475   32.9489 O   0  0  0  0  0  0  0  0  0  0  0  0
  -11.0679   -6.4711   34.4307 C   0  0  0  0  0  0  0  0  0  0  0  0
  -12.6084   -5.8826   34.9772 C   0  0  0  0  0  0  0  0  0  0  0  0
  -12.6378   -4.7481   35.7305 C   0  0  0  0  0  0  0  0  0  0  0  0
  -11.3713   -4.4804   35.7040 N   0  0  0  0  0  0  0  0  0  0  0  0
  -10.5269   -5.6485   35.3197 N   0  0  0  0  0  0  0  0  0  0  0  0
  -10.0751  -15.4834   33.2253 N   0  0  0  0  0  0  0  0  0  0  0  0
  -10.2289  -16.3483   34.4630 C   0  0  0  0  0  0  0  0  0  0  0  0
   -9.4408  -16.6058   35.3478 O   0  0  0  0  0  0  0  0  0  0  0  0
  -11.6602  -16.9524   34.7555 C   0  0  0  0  0  0  0  0  0  0  0  0
  -12.9992  -16.3056   34.6170 C   0  0  0  0  0  0  0  0  0  0  0  0
  -14.1715  -16.8799   34.6416 N   0  0  0  0  0  0  0  0  0  0  0  0
  -14.1793  -18.2426   34.6773 C   0  0  0  0  0  0  0  0  0  0  0  0
  -15.1711  -19.0514   34.3606 N   0  0  0  0  0  0  0  0  0  0  0  0
  -14.6088  -20.2860   34.1650 C   0  0  0  0  0  0  0  0  0  0  0  0
  -13.2504  -20.2307   34.3723 C   0  0  0  0  0  0  0  0  0  0  0  0
  -12.9900  -18.9350   34.7298 N   0  0  0  0  0  0  0  0  0  0  0  0
  -11.7800  -18.2939   34.8420 C   0  0  0  0  0  0  0  0  0  0  0  0
   -7.2712  -15.5886   34.4477 H   0  0  0  0  0  0  0  0  0  0  0  0
   -6.5715  -16.0855   32.9637 H   0  0  0  0  0  0  0  0  0  0  0  0
   -8.0446  -16.7509   33.4184 H   0  0  0  0  0  0  0  0  0  0  0  0
   -8.4847  -14.6286   31.5355 H   0  0  0  0  0  0  0  0  0  0  0  0
   -9.7641  -13.0899   33.0035 H   0  0  0  0  0  0  0  0  0  0  0  0
   -8.5209  -12.1376   33.9343 H   0  0  0  0  0  0  0  0  0  0  0  0
   -8.2558  -10.8648   32.2202 H   0  0  0  0  0  0  0  0  0  0  0  0
   -9.5055  -10.7195   31.1631 H   0  0  0  0  0  0  0  0  0  0  0  0
  -11.0864   -9.6345   33.7120 H   0  0  0  0  0  0  0  0  0  0  0  0
  -13.5706   -6.3589   34.8879 H   0  0  0  0  0  0  0  0  0  0  0  0
  -13.3291   -4.2085   36.3585 H   0  0  0  0  0  0  0  0  0  0  0  0
  -10.9026   -3.7953   36.2816 H   0  0  0  0  0  0  0  0  0  0  0  0
  -10.9120  -15.5594   32.6599 H   0  0  0  0  0  0  0  0  0  0  0  0
  -12.9924  -15.2171   34.4987 H   0  0  0  0  0  0  0  0  0  0  0  0
  -15.2037  -21.1436   33.8721 H   0  0  0  0  0  0  0  0  0  0  0  0
  -12.4699  -20.9704   34.2651 H   0  0  0  0  0  0  0  0  0  0  0  0
  -10.9474  -18.9283   34.6895 H   0  0  0  0  0  0  0  0  0  0  0  0
  1  2  1  0
  2  3  1  0
  3  4  1  0
  4  5  1  0
  5  6  1  0
  6  7  2  0
  6  8  1  0
  8  9  1  0
  9 10  2  0
 10 11  1  0
 11 12  1  0
  2 13  1  0
 13 14  1  0
 14 15  2  0
 14 16  1  0
 16 17  1  0
 17 18  2  0
 18 19  1  0
 19 20  2  0
 20 21  1  0
 21 22  2  0
 22 23  1  0
 23 24  1  0
 12  8  2  0
 24 16  2  0
 23 19  1  0
  1 25  1  0
  1 26  1  0
  1 27  1  0
  2 28  1  0
  3 29  1  0
  3 30  1  0
  4 31  1  0
  4 32  1  0
  5 33  1  0
  9 34  1  0
 10 35  1  0
 11 36  1  0
 13 37  1  0
 17 38  1  0
 21 39  1  0
 22 40  1  0
 24 41  1  0
M  END
>  <Energy>  (859) 
600.95122913190096

>  <compound_id>  (859) 
45295

>  <target_id>  (859) 
1

>  <reference_id>  (859) 
107

>  <inspiration_ids>  (859) 
[107, 7]

>  <energy_score>  (859) 
544.2971002355619

>  <distance_score>  (859) 
6.810270199560677

>  <path>  (859) 
/opt/xchem-fragalysis-2/maxwin/BulkDock/SCRATCH/511022/C45295-P107/C45295-P107.minimised.mol

>  <scratch_subdir>  (859) 
/opt/xchem-fragalysis-2/maxwin/BulkDock/SCRATCH/511022/C45295-P107

>  <fragmenstein_runtime>  (859) 
24.64631414413452

>  <fragmenstein_outcome>  (859) 
too moved

>  <fragmenstein_mode>  (859) 
expansion

>  <fragmenstein_error>  (859) 


$$$$
C45295-P7
     RDKit          3D

 41 43  0  0  0  0  0  0  0  0999 V2000
  -10.3016  -15.8074   34.3981 C   0  0  0  0  0  0  0  0  0  0  0  0
  -10.4222  -14.5476   33.1388 C   0  0  0  0  0  0  0  0  0  0  0  0
   -9.3043  -12.7661   33.0076 C   0  0  0  0  0  0  0  0  0  0  0  0
   -9.4119  -10.8055   32.2533 C   0  0  0  0  0  0  0  0  0  0  0  0
  -10.3164   -9.2687   33.2233 N   0  0  0  0  0  0  0  0  0  0  0  0
   -9.7663   -7.4733   33.5539 C   0  0  0  0  0  0  0  0  0  0  0  0
   -8.7475   -7.0214   33.0850 O   0  0  0  0  0  0  0  0  0  0  0  0
  -10.6718   -6.1868   34.8304 C   0  0  0  0  0  0  0  0  0  0  0  0
  -11.4072   -4.5229   35.0160 C   0  0  0  0  0  0  0  0  0  0  0  0
  -11.5942   -3.9215   36.2099 C   0  0  0  0  0  0  0  0  0  0  0  0
  -10.7763   -4.7385   36.7944 N   0  0  0  0  0  0  0  0  0  0  0  0
  -10.0412   -5.6083   36.0295 N   0  0  0  0  0  0  0  0  0  0  0  0
  -10.5389  -15.8977   32.2218 N   0  0  0  0  0  0  0  0  0  0  0  0
  -11.6899  -16.4134   30.6537 C   0  0  0  0  0  0  0  0  0  0  0  0
  -12.5793  -15.6691   30.2625 O   0  0  0  0  0  0  0  0  0  0  0  0
  -11.3927  -18.2174   29.3546 C   0  0  0  0  0  0  0  0  0  0  0  0
  -12.5522  -19.7604   29.0772 C   0  0  0  0  0  0  0  0  0  0  0  0
  -12.7548  -21.0378   29.5461 N   0  0  0  0  0  0  0  0  0  0  0  0
  -12.1096  -21.5196   30.5890 C   0  0  0  0  0  0  0  0  0  0  0  0
  -12.5183  -22.0263   31.6968 N   0  0  0  0  0  0  0  0  0  0  0  0
  -11.6644  -21.6406   32.6325 C   0  0  0  0  0  0  0  0  0  0  0  0
  -10.7411  -20.8377   32.0261 C   0  0  0  0  0  0  0  0  0  0  0  0
  -10.9265  -20.9450   30.6740 N   0  0  0  0  0  0  0  0  0  0  0  0
  -10.7800  -20.0361   29.4311 C   0  0  0  0  0  0  0  0  0  0  0  0
   -9.7159  -15.6889   35.3105 H   0  0  0  0  0  0  0  0  0  0  0  0
   -9.7114  -16.6868   34.0920 H   0  0  0  0  0  0  0  0  0  0  0  0
  -11.3182  -16.1776   34.5926 H   0  0  0  0  0  0  0  0  0  0  0  0
   -9.4192  -14.7536   32.6594 H   0  0  0  0  0  0  0  0  0  0  0  0
   -9.9277  -12.5679   32.2896 H   0  0  0  0  0  0  0  0  0  0  0  0
   -8.7819  -12.3154   33.8074 H   0  0  0  0  0  0  0  0  0  0  0  0
   -8.3771  -10.9025   32.1690 H   0  0  0  0  0  0  0  0  0  0  0  0
   -9.7064  -10.7133   31.2184 H   0  0  0  0  0  0  0  0  0  0  0  0
  -11.1320   -9.4691   33.7658 H   0  0  0  0  0  0  0  0  0  0  0  0
  -11.5285   -3.7729   34.2191 H   0  0  0  0  0  0  0  0  0  0  0  0
  -12.0204   -3.0031   36.5837 H   0  0  0  0  0  0  0  0  0  0  0  0
  -10.6095   -4.7375   37.7953 H   0  0  0  0  0  0  0  0  0  0  0  0
   -9.9484  -16.6316   32.4447 H   0  0  0  0  0  0  0  0  0  0  0  0
  -12.4224  -20.2200   28.1096 H   0  0  0  0  0  0  0  0  0  0  0  0
  -11.8751  -21.8612   33.6701 H   0  0  0  0  0  0  0  0  0  0  0  0
  -10.0389  -20.1296   32.4148 H   0  0  0  0  0  0  0  0  0  0  0  0
  -10.6883  -20.9194   28.7142 H   0  0  0  0  0  0  0  0  0  0  0  0
  1  2  1  0
  2  3  1  0
  3  4  1  0
  4  5  1  0
  5  6  1  0
  6  7  2  0
  6  8  1  0
  8  9  1  0
  9 10  2  0
 10 11  1  0
 11 12  1  0
  2 13  1  0
 13 14  1  0
 14 15  2  0
 14 16  1  0
 16 17  1  0
 17 18  2  0
 18 19  1  0
 19 20  2  0
 20 21  1  0
 21 22  2  0
 22 23  1  0
 23 24  1  0
 12  8  2  0
 24 16  2  0
 23 19  1  0
  1 25  1  0
  1 26  1  0
  1 27  1  0
  2 28  1  0
  3 29  1  0
  3 30  1  0
  4 31  1  0
  4 32  1  0
  5 33  1  0
  9 34  1  0
 10 35  1  0
 11 36  1  0
 13 37  1  0
 17 38  1  0
 21 39  1  0
 22 40  1  0
 24 41  1  0
M  END
>  <Energy>  (860) 
1571.3990620783438

>  <compound_id>  (860) 
45295

>  <target_id>  (860) 
1

>  <reference_id>  (860) 
7

>  <inspiration_ids>  (860) 
[107, 7]

>  <energy_score>  (860) 
1514.7449331820126

>  <distance_score>  (860) 
4.126659580019674

>  <path>  (860) 
/opt/xchem-fragalysis-2/maxwin/BulkDock/SCRATCH/511022/C45295-P7/C45295-P7.minimised.mol

>  <scratch_subdir>  (860) 
/opt/xchem-fragalysis-2/maxwin/BulkDock/SCRATCH/511022/C45295-P7

>  <fragmenstein_runtime>  (860) 
12.44025707244873

>  <fragmenstein_outcome>  (860) 
too moved

>  <fragmenstein_mode>  (860) 
expansion

>  <fragmenstein_error>  (860) 


$$$$
C45280-P107
     RDKit          3D

 32 35  0  0  0  0  0  0  0  0999 V2000
  -10.6419  -15.7128   33.7743 O   0  0  0  0  0  0  0  0  0  0  0  0
  -11.7413  -15.2568   33.6968 C   0  0  0  0  0  0  0  0  0  0  0  0
  -12.9993  -15.7689   34.1523 N   0  0  0  0  0  0  0  0  0  0  0  0
  -13.3256  -16.9775   34.7316 C   0  0  0  0  0  0  0  0  0  0  0  0
  -12.2958  -18.0924   34.8053 C   0  0  0  0  0  0  0  0  0  0  0  0
  -12.5340  -19.3648   34.6881 N   0  0  0  0  0  0  0  0  0  0  0  0
  -13.8408  -19.6833   34.5268 C   0  0  0  0  0  0  0  0  0  0  0  0
  -14.3908  -20.7505   33.9893 N   0  0  0  0  0  0  0  0  0  0  0  0
  -15.7397  -20.6127   34.1692 C   0  0  0  0  0  0  0  0  0  0  0  0
  -16.0293  -19.4107   34.7752 C   0  0  0  0  0  0  0  0  0  0  0  0
  -14.8216  -18.7725   34.9005 N   0  0  0  0  0  0  0  0  0  0  0  0
  -14.5474  -17.4105   35.0718 C   0  0  0  0  0  0  0  0  0  0  0  0
  -11.7062  -13.7972   33.0724 C   0  0  0  0  0  0  0  0  0  0  0  0
   -9.8667  -13.0630   32.8279 C   0  0  0  0  0  0  0  0  0  0  0  0
   -9.9626  -11.0539   32.2889 C   0  0  0  0  0  0  0  0  0  0  0  0
  -11.3362  -10.1102   33.4999 C   0  0  0  0  0  0  0  0  0  0  0  0
  -11.6462   -8.2701   34.7930 C   0  0  0  0  0  0  0  0  0  0  0  0
  -11.0087   -6.6139   34.4338 C   0  0  0  0  0  0  0  0  0  0  0  0
  -11.8062   -5.5882   34.9637 C   0  0  0  0  0  0  0  0  0  0  0  0
  -12.9295   -6.2218   35.2457 N   0  0  0  0  0  0  0  0  0  0  0  0
  -12.7415   -7.6017   35.4398 N   0  0  0  0  0  0  0  0  0  0  0  0
  -12.8847  -11.8977   34.2065 S   0  0  0  0  0  0  0  0  0  0  0  0
  -13.7433  -15.1473   33.8387 H   0  0  0  0  0  0  0  0  0  0  0  0
  -11.2577  -17.7678   34.9824 H   0  0  0  0  0  0  0  0  0  0  0  0
  -16.4255  -21.3891   33.8506 H   0  0  0  0  0  0  0  0  0  0  0  0
  -16.9655  -18.9452   35.0454 H   0  0  0  0  0  0  0  0  0  0  0  0
  -15.3938  -16.7615   35.2216 H   0  0  0  0  0  0  0  0  0  0  0  0
   -9.1703  -13.8990   32.6048 H   0  0  0  0  0  0  0  0  0  0  0  0
   -9.0110  -10.6814   31.9911 H   0  0  0  0  0  0  0  0  0  0  0  0
  -10.0746   -6.6703   33.8695 H   0  0  0  0  0  0  0  0  0  0  0  0
  -11.8006   -4.5143   35.0755 H   0  0  0  0  0  0  0  0  0  0  0  0
  -13.8053   -5.8673   35.5802 H   0  0  0  0  0  0  0  0  0  0  0  0
  1  2  2  0
  2  3  1  0
  3  4  1  0
  4  5  1  0
  5  6  2  0
  6  7  1  0
  7  8  2  0
  8  9  1  0
  9 10  2  0
 10 11  1  0
 11 12  1  0
  2 13  1  0
 13 14  2  0
 14 15  1  0
 15 16  2  0
 16 17  1  0
 17 18  1  0
 18 19  2  0
 19 20  1  0
 20 21  1  0
 16 22  1  0
 12  4  2  0
 22 13  1  0
 11  7  1  0
 21 17  2  0
  3 23  1  0
  5 24  1  0
  9 25  1  0
 10 26  1  0
 12 27  1  0
 14 28  1  0
 15 29  1  0
 18 30  1  0
 19 31  1  0
 20 32  1  0
M  END
>  <Energy>  (861) 
950.92051548616496

>  <compound_id>  (861) 
45280

>  <target_id>  (861) 
1

>  <reference_id>  (861) 
107

>  <inspiration_ids>  (861) 
[107, 7]

>  <energy_score>  (861) 
849.0245834363247

>  <distance_score>  (861) 
7.520146842376965

>  <path>  (861) 
/opt/xchem-fragalysis-2/maxwin/BulkDock/SCRATCH/511022/C45280-P107/C45280-P107.minimised.mol

>  <scratch_subdir>  (861) 
/opt/xchem-fragalysis-2/maxwin/BulkDock/SCRATCH/511022/C45280-P107

>  <fragmenstein_runtime>  (861) 
7.31524658203125

>  <fragmenstein_outcome>  (861) 
too moved

>  <fragmenstein_mode>  (861) 
expansion

>  <fragmenstein_error>  (861) 


$$$$
C45280-P7
     RDKit          3D

 32 35  0  0  0  0  0  0  0  0999 V2000
  -11.1153  -14.7334   30.2780 O   0  0  0  0  0  0  0  0  0  0  0  0
  -11.8078  -15.2130   31.1192 C   0  0  0  0  0  0  0  0  0  0  0  0
  -12.3180  -16.9796   30.6661 N   0  0  0  0  0  0  0  0  0  0  0  0
  -11.7980  -18.2719   29.1833 C   0  0  0  0  0  0  0  0  0  0  0  0
  -12.6205  -20.0031   29.0528 C   0  0  0  0  0  0  0  0  0  0  0  0
  -12.7930  -21.2290   29.5877 N   0  0  0  0  0  0  0  0  0  0  0  0
  -12.1502  -21.5728   30.6690 C   0  0  0  0  0  0  0  0  0  0  0  0
  -12.5636  -21.9891   31.8104 N   0  0  0  0  0  0  0  0  0  0  0  0
  -11.6938  -21.5494   32.6943 C   0  0  0  0  0  0  0  0  0  0  0  0
  -10.7628  -20.8047   32.0209 C   0  0  0  0  0  0  0  0  0  0  0  0
  -10.9899  -20.9497   30.6714 N   0  0  0  0  0  0  0  0  0  0  0  0
  -10.9948  -20.0235   29.3330 C   0  0  0  0  0  0  0  0  0  0  0  0
  -11.9668  -13.9828   32.8471 C   0  0  0  0  0  0  0  0  0  0  0  0
  -10.0723  -13.2905   32.8935 C   0  0  0  0  0  0  0  0  0  0  0  0
  -10.0738  -11.2995   32.2621 C   0  0  0  0  0  0  0  0  0  0  0  0
  -11.4520  -10.2493   33.3817 C   0  0  0  0  0  0  0  0  0  0  0  0
  -10.5829   -8.3698   33.2248 C   0  0  0  0  0  0  0  0  0  0  0  0
  -10.4510   -6.9058   34.1033 C   0  0  0  0  0  0  0  0  0  0  0  0
   -9.0099   -6.5952   34.2101 C   0  0  0  0  0  0  0  0  0  0  0  0
   -8.6646   -7.0806   33.0867 N   0  0  0  0  0  0  0  0  0  0  0  0
   -9.3380   -8.1575   33.0602 N   0  0  0  0  0  0  0  0  0  0  0  0
  -13.0039  -12.0079   34.1180 S   0  0  0  0  0  0  0  0  0  0  0  0
  -12.8025  -17.3389   31.4270 H   0  0  0  0  0  0  0  0  0  0  0  0
  -12.4735  -20.4340   28.0497 H   0  0  0  0  0  0  0  0  0  0  0  0
  -11.8931  -21.6988   33.7462 H   0  0  0  0  0  0  0  0  0  0  0  0
  -10.0396  -20.1044   32.3849 H   0  0  0  0  0  0  0  0  0  0  0  0
  -10.7561  -20.9420   28.6657 H   0  0  0  0  0  0  0  0  0  0  0  0
   -9.3463  -14.0576   32.5313 H   0  0  0  0  0  0  0  0  0  0  0  0
   -9.1299  -10.8504   32.0065 H   0  0  0  0  0  0  0  0  0  0  0  0
  -11.1132   -6.5696   34.8915 H   0  0  0  0  0  0  0  0  0  0  0  0
   -8.3411   -6.0862   34.9131 H   0  0  0  0  0  0  0  0  0  0  0  0
   -7.7548   -6.9902   32.6545 H   0  0  0  0  0  0  0  0  0  0  0  0
  1  2  2  0
  2  3  1  0
  3  4  1  0
  4  5  1  0
  5  6  2  0
  6  7  1  0
  7  8  2  0
  8  9  1  0
  9 10  2  0
 10 11  1  0
 11 12  1  0
  2 13  1  0
 13 14  2  0
 14 15  1  0
 15 16  2  0
 16 17  1  0
 17 18  1  0
 18 19  2  0
 19 20  1  0
 20 21  1  0
 16 22  1  0
 12  4  2  0
 22 13  1  0
 11  7  1  0
 21 17  2  0
  3 23  1  0
  5 24  1  0
  9 25  1  0
 10 26  1  0
 12 27  1  0
 14 28  1  0
 15 29  1  0
 18 30  1  0
 19 31  1  0
 20 32  1  0
M  END
>  <Energy>  (862) 
1904.4268078009213

>  <compound_id>  (862) 
45280

>  <target_id>  (862) 
1

>  <reference_id>  (862) 
7

>  <inspiration_ids>  (862) 
[107, 7]

>  <energy_score>  (862) 
1802.5308757510857

>  <distance_score>  (862) 
5.557933043074051

>  <path>  (862) 
/opt/xchem-fragalysis-2/maxwin/BulkDock/SCRATCH/511022/C45280-P7/C45280-P7.minimised.mol

>  <scratch_subdir>  (862) 
/opt/xchem-fragalysis-2/maxwin/BulkDock/SCRATCH/511022/C45280-P7

>  <fragmenstein_runtime>  (862) 
8.583355188369751

>  <fragmenstein_outcome>  (862) 
too moved

>  <fragmenstein_mode>  (862) 
expansion

>  <fragmenstein_error>  (862) 


$$$$
C45296-P107
     RDKit          3D

 41 43  0  0  0  0  0  0  0  0999 V2000
   -9.0230  -13.9239   26.7866 C   0  0  0  0  0  0  0  0  0  0  0  0
  -10.5015  -13.9950   26.3295 C   0  0  0  0  0  0  0  0  0  0  0  0
  -11.4528  -12.8007   26.2939 C   0  0  0  0  0  0  0  0  0  0  0  0
  -10.2449  -14.1381   24.7003 C   0  0  0  0  0  0  0  0  0  0  0  0
   -9.8295  -12.7408   24.3670 N   0  0  0  0  0  0  0  0  0  0  0  0
  -10.4903  -11.7170   23.6162 C   0  0  0  0  0  0  0  0  0  0  0  0
  -11.5083  -11.7419   22.9884 O   0  0  0  0  0  0  0  0  0  0  0  0
   -9.7266  -10.4274   23.8164 C   0  0  0  0  0  0  0  0  0  0  0  0
  -10.2656   -9.1028   23.7190 C   0  0  0  0  0  0  0  0  0  0  0  0
   -9.4592   -8.3038   24.4997 C   0  0  0  0  0  0  0  0  0  0  0  0
   -8.5033   -9.1314   25.0064 N   0  0  0  0  0  0  0  0  0  0  0  0
   -8.6015  -10.4008   24.5695 N   0  0  0  0  0  0  0  0  0  0  0  0
  -11.0936  -15.0905   27.2259 N   0  0  0  0  0  0  0  0  0  0  0  0
  -10.7762  -16.4898   27.3478 C   0  0  0  0  0  0  0  0  0  0  0  0
   -9.9726  -17.1401   26.7325 O   0  0  0  0  0  0  0  0  0  0  0  0
  -11.9477  -17.6666   28.6697 C   0  0  0  0  0  0  0  0  0  0  0  0
  -10.7836  -18.2072   29.0962 C   0  0  0  0  0  0  0  0  0  0  0  0
  -10.5080  -19.8128   29.5372 N   0  0  0  0  0  0  0  0  0  0  0  0
  -10.9871  -20.9886   29.0991 C   0  0  0  0  0  0  0  0  0  0  0  0
  -10.6855  -22.2244   28.8303 N   0  0  0  0  0  0  0  0  0  0  0  0
  -11.7911  -22.8789   29.2687 C   0  0  0  0  0  0  0  0  0  0  0  0
  -12.7089  -21.9373   29.6683 C   0  0  0  0  0  0  0  0  0  0  0  0
  -12.2517  -20.7461   29.0652 N   0  0  0  0  0  0  0  0  0  0  0  0
  -12.6143  -19.1944   28.9301 C   0  0  0  0  0  0  0  0  0  0  0  0
   -8.4873  -14.8350   26.4851 H   0  0  0  0  0  0  0  0  0  0  0  0
   -8.4480  -13.0981   26.3715 H   0  0  0  0  0  0  0  0  0  0  0  0
   -8.9130  -13.8937   27.8631 H   0  0  0  0  0  0  0  0  0  0  0  0
  -11.0773  -11.8491   25.9319 H   0  0  0  0  0  0  0  0  0  0  0  0
  -11.8414  -12.5336   27.2456 H   0  0  0  0  0  0  0  0  0  0  0  0
  -12.3004  -13.0479   25.6399 H   0  0  0  0  0  0  0  0  0  0  0  0
  -11.1670  -14.3944   24.1709 H   0  0  0  0  0  0  0  0  0  0  0  0
   -9.4432  -14.8375   24.4504 H   0  0  0  0  0  0  0  0  0  0  0  0
   -8.9343  -12.3802   24.7033 H   0  0  0  0  0  0  0  0  0  0  0  0
  -11.1947   -8.8204   23.2434 H   0  0  0  0  0  0  0  0  0  0  0  0
   -9.5104   -7.2595   24.7713 H   0  0  0  0  0  0  0  0  0  0  0  0
   -7.7618   -8.9150   25.6660 H   0  0  0  0  0  0  0  0  0  0  0  0
  -11.7429  -14.8494   27.9410 H   0  0  0  0  0  0  0  0  0  0  0  0
  -10.6227  -17.9745   28.1076 H   0  0  0  0  0  0  0  0  0  0  0  0
  -11.8183  -23.9536   29.3932 H   0  0  0  0  0  0  0  0  0  0  0  0
  -13.5964  -22.0386   30.2835 H   0  0  0  0  0  0  0  0  0  0  0  0
  -13.6456  -19.3836   29.2218 H   0  0  0  0  0  0  0  0  0  0  0  0
  1  2  1  0
  2  3  1  0
  2  4  1  0
  4  5  1  0
  5  6  1  0
  6  7  2  0
  6  8  1  0
  8  9  1  0
  9 10  2  0
 10 11  1  0
 11 12  1  0
  2 13  1  0
 13 14  1  0
 14 15  2  0
 14 16  1  0
 16 17  1  0
 17 18  2  0
 18 19  1  0
 19 20  2  0
 20 21  1  0
 21 22  2  0
 22 23  1  0
 23 24  1  0
 12  8  2  0
 24 16  2  0
 23 19  1  0
  1 25  1  0
  1 26  1  0
  1 27  1  0
  3 28  1  0
  3 29  1  0
  3 30  1  0
  4 31  1  0
  4 32  1  0
  5 33  1  0
  9 34  1  0
 10 35  1  0
 11 36  1  0
 13 37  1  0
 17 38  1  0
 21 39  1  0
 22 40  1  0
 24 41  1  0
M  END
>  <Energy>  (863) 
617.48029770301764

>  <compound_id>  (863) 
45296

>  <target_id>  (863) 
1

>  <reference_id>  (863) 
107

>  <inspiration_ids>  (863) 
[107, 7]

>  <energy_score>  (863) 
527.1443050055145

>  <distance_score>  (863) 
10.301213501912057

>  <path>  (863) 
/opt/xchem-fragalysis-2/maxwin/BulkDock/SCRATCH/511022/C45296-P107/C45296-P107.minimised.mol

>  <scratch_subdir>  (863) 
/opt/xchem-fragalysis-2/maxwin/BulkDock/SCRATCH/511022/C45296-P107

>  <fragmenstein_runtime>  (863) 
21.4509117603302

>  <fragmenstein_outcome>  (863) 
too moved

>  <fragmenstein_mode>  (863) 
expansion

>  <fragmenstein_error>  (863) 


$$$$
C45296-P7
     RDKit          3D

 41 43  0  0  0  0  0  0  0  0999 V2000
  -10.6553  -15.6801   33.4622 C   0  0  0  0  0  0  0  0  0  0  0  0
  -11.3244  -15.0876   31.8350 C   0  0  0  0  0  0  0  0  0  0  0  0
  -12.6690  -14.8733   32.5229 C   0  0  0  0  0  0  0  0  0  0  0  0
   -9.8610  -13.4470   32.6572 C   0  0  0  0  0  0  0  0  0  0  0  0
   -9.2253  -11.3974   32.4237 N   0  0  0  0  0  0  0  0  0  0  0  0
  -10.0564   -9.6422   32.9840 C   0  0  0  0  0  0  0  0  0  0  0  0
  -11.1700   -9.6364   33.4767 O   0  0  0  0  0  0  0  0  0  0  0  0
   -9.3229   -7.8573   33.0583 C   0  0  0  0  0  0  0  0  0  0  0  0
   -9.5788   -6.8687   33.9569 C   0  0  0  0  0  0  0  0  0  0  0  0
   -8.3293   -6.4168   34.5270 C   0  0  0  0  0  0  0  0  0  0  0  0
   -7.4983   -6.6176   33.5322 N   0  0  0  0  0  0  0  0  0  0  0  0
   -8.1612   -7.2265   32.6166 N   0  0  0  0  0  0  0  0  0  0  0  0
  -12.2610  -16.7169   31.0472 N   0  0  0  0  0  0  0  0  0  0  0  0
  -12.0569  -17.7591   29.3827 C   0  0  0  0  0  0  0  0  0  0  0  0
  -11.4062  -17.5469   28.4153 O   0  0  0  0  0  0  0  0  0  0  0  0
  -12.8333  -19.6451   29.2442 C   0  0  0  0  0  0  0  0  0  0  0  0
  -12.4491  -21.0078   30.4721 C   0  0  0  0  0  0  0  0  0  0  0  0
  -11.3775  -21.6067   30.8415 N   0  0  0  0  0  0  0  0  0  0  0  0
  -11.3883  -22.6282   29.9695 C   0  0  0  0  0  0  0  0  0  0  0  0
  -11.1067  -23.9075   30.0199 N   0  0  0  0  0  0  0  0  0  0  0  0
  -11.1632  -24.3140   28.7084 C   0  0  0  0  0  0  0  0  0  0  0  0
  -11.4941  -23.2645   27.8743 C   0  0  0  0  0  0  0  0  0  0  0  0
  -11.7461  -22.2052   28.7169 N   0  0  0  0  0  0  0  0  0  0  0  0
  -12.2592  -20.8578   28.4924 C   0  0  0  0  0  0  0  0  0  0  0  0
  -10.5915  -14.8937   34.1284 H   0  0  0  0  0  0  0  0  0  0  0  0
   -9.6827  -16.1678   33.3427 H   0  0  0  0  0  0  0  0  0  0  0  0
  -11.3392  -16.2383   34.1374 H   0  0  0  0  0  0  0  0  0  0  0  0
  -12.9708  -14.0813   33.1697 H   0  0  0  0  0  0  0  0  0  0  0  0
  -13.0334  -14.6762   31.5390 H   0  0  0  0  0  0  0  0  0  0  0  0
  -13.1567  -15.7430   32.9753 H   0  0  0  0  0  0  0  0  0  0  0  0
   -8.8749  -13.3778   33.0488 H   0  0  0  0  0  0  0  0  0  0  0  0
   -9.1689  -14.2666   32.1801 H   0  0  0  0  0  0  0  0  0  0  0  0
   -8.2943  -11.2341   32.1221 H   0  0  0  0  0  0  0  0  0  0  0  0
  -10.5390   -6.6632   34.4375 H   0  0  0  0  0  0  0  0  0  0  0  0
   -8.0464   -5.8946   35.4190 H   0  0  0  0  0  0  0  0  0  0  0  0
   -6.4955   -6.4769   33.4643 H   0  0  0  0  0  0  0  0  0  0  0  0
  -12.8172  -17.1842   31.7225 H   0  0  0  0  0  0  0  0  0  0  0  0
  -13.4032  -21.5576   30.6817 H   0  0  0  0  0  0  0  0  0  0  0  0
  -10.9450  -25.3382   28.4345 H   0  0  0  0  0  0  0  0  0  0  0  0
  -11.6499  -23.1971   26.8077 H   0  0  0  0  0  0  0  0  0  0  0  0
  -12.0942  -20.8745   27.4287 H   0  0  0  0  0  0  0  0  0  0  0  0
  1  2  1  0
  2  3  1  0
  2  4  1  0
  4  5  1  0
  5  6  1  0
  6  7  2  0
  6  8  1  0
  8  9  1  0
  9 10  2  0
 10 11  1  0
 11 12  1  0
  2 13  1  0
 13 14  1  0
 14 15  2  0
 14 16  1  0
 16 17  1  0
 17 18  2  0
 18 19  1  0
 19 20  2  0
 20 21  1  0
 21 22  2  0
 22 23  1  0
 23 24  1  0
 12  8  2  0
 24 16  2  0
 23 19  1  0
  1 25  1  0
  1 26  1  0
  1 27  1  0
  3 28  1  0
  3 29  1  0
  3 30  1  0
  4 31  1  0
  4 32  1  0
  5 33  1  0
  9 34  1  0
 10 35  1  0
 11 36  1  0
 13 37  1  0
 17 38  1  0
 21 39  1  0
 22 40  1  0
 24 41  1  0
M  END
>  <Energy>  (864) 
1390.7485526890064

>  <compound_id>  (864) 
45296

>  <target_id>  (864) 
1

>  <reference_id>  (864) 
7

>  <inspiration_ids>  (864) 
[107, 7]

>  <energy_score>  (864) 
1300.4125599915174

>  <distance_score>  (864) 
5.819446745230018

>  <path>  (864) 
/opt/xchem-fragalysis-2/maxwin/BulkDock/SCRATCH/511022/C45296-P7/C45296-P7.minimised.mol

>  <scratch_subdir>  (864) 
/opt/xchem-fragalysis-2/maxwin/BulkDock/SCRATCH/511022/C45296-P7

>  <fragmenstein_runtime>  (864) 
14.74349308013916

>  <fragmenstein_outcome>  (864) 
too moved

>  <fragmenstein_mode>  (864) 
expansion

>  <fragmenstein_error>  (864) 


$$$$
C45297-P107
     RDKit          3D

 40 43  0  0  0  0  0  0  0  0999 V2000
  -11.7375  -22.4998   28.1192 C   0  0  0  0  0  0  0  0  0  0  0  0
  -11.9711  -21.1217   27.7922 O   0  0  0  0  0  0  0  0  0  0  0  0
  -11.8879  -20.1806   28.8529 C   0  0  0  0  0  0  0  0  0  0  0  0
  -11.6793  -20.7562   29.9390 O   0  0  0  0  0  0  0  0  0  0  0  0
  -11.9575  -18.1914   28.4823 C   0  0  0  0  0  0  0  0  0  0  0  0
  -12.8872  -18.6731   29.1280 C   0  0  0  0  0  0  0  0  0  0  0  0
  -12.3749  -17.5735   29.4302 N   0  0  0  0  0  0  0  0  0  0  0  0
  -12.4308  -16.7877   30.4413 C   0  0  0  0  0  0  0  0  0  0  0  0
  -12.7496  -16.4776   31.7200 N   0  0  0  0  0  0  0  0  0  0  0  0
  -12.7266  -15.2633   32.0730 C   0  0  0  0  0  0  0  0  0  0  0  0
  -13.0864  -14.7768   33.4902 N   0  0  0  0  0  0  0  0  0  0  0  0
  -13.3046  -15.9002   34.4468 C   0  0  0  0  0  0  0  0  0  0  0  0
  -14.0695  -15.5300   35.7181 C   0  0  0  0  0  0  0  0  0  0  0  0
  -15.3629  -14.9876   35.5074 O   0  0  0  0  0  0  0  0  0  0  0  0
  -15.3565  -13.7729   34.7390 C   0  0  0  0  0  0  0  0  0  0  0  0
  -15.7301  -12.5152   35.5844 C   0  0  0  0  0  0  0  0  0  0  0  0
  -15.3854  -12.2206   36.9326 C   0  0  0  0  0  0  0  0  0  0  0  0
  -15.9753  -11.0184   37.2342 C   0  0  0  0  0  0  0  0  0  0  0  0
  -16.7062  -10.7037   36.1375 N   0  0  0  0  0  0  0  0  0  0  0  0
  -16.5236  -11.5364   35.0948 N   0  0  0  0  0  0  0  0  0  0  0  0
  -14.0879  -13.5544   33.8716 C   0  0  0  0  0  0  0  0  0  0  0  0
  -12.7822  -14.7669   30.6243 C   0  0  0  0  0  0  0  0  0  0  0  0
  -11.9358  -15.1535   29.5328 C   0  0  0  0  0  0  0  0  0  0  0  0
  -12.3130  -16.4657   29.1853 N   0  0  0  0  0  0  0  0  0  0  0  0
  -10.6983  -22.6407   28.4185 H   0  0  0  0  0  0  0  0  0  0  0  0
  -12.4235  -22.8434   28.8988 H   0  0  0  0  0  0  0  0  0  0  0  0
  -11.9186  -23.0924   27.2183 H   0  0  0  0  0  0  0  0  0  0  0  0
  -13.6366  -19.4861   29.2410 H   0  0  0  0  0  0  0  0  0  0  0  0
  -12.3404  -16.3441   34.7055 H   0  0  0  0  0  0  0  0  0  0  0  0
  -13.8970  -16.6744   33.9805 H   0  0  0  0  0  0  0  0  0  0  0  0
  -14.1908  -16.4269   36.3348 H   0  0  0  0  0  0  0  0  0  0  0  0
  -13.5264  -14.8176   36.3049 H   0  0  0  0  0  0  0  0  0  0  0  0
  -16.1978  -13.8663   34.0479 H   0  0  0  0  0  0  0  0  0  0  0  0
  -14.8029  -12.8311   37.6039 H   0  0  0  0  0  0  0  0  0  0  0  0
  -15.9918  -10.4239   38.1353 H   0  0  0  0  0  0  0  0  0  0  0  0
  -17.3434   -9.9248   36.0230 H   0  0  0  0  0  0  0  0  0  0  0  0
  -14.4184  -12.9716   33.0066 H   0  0  0  0  0  0  0  0  0  0  0  0
  -13.5157  -12.8391   34.4640 H   0  0  0  0  0  0  0  0  0  0  0  0
  -13.3903  -13.8509   30.5379 H   0  0  0  0  0  0  0  0  0  0  0  0
  -11.6177  -14.5507   28.6959 H   0  0  0  0  0  0  0  0  0  0  0  0
  1  2  1  0
  2  3  1  0
  3  4  2  0
  3  5  1  0
  5  6  2  0
  6  7  1  0
  7  8  2  0
  8  9  1  0
  9 10  2  0
 10 11  1  0
 11 12  1  0
 12 13  1  0
 13 14  1  0
 14 15  1  0
 15 16  1  0
 16 17  1  0
 17 18  2  0
 18 19  1  0
 19 20  1  0
 15 21  1  0
 10 22  1  0
 22 23  2  0
 23 24  1  0
 24  5  1  0
 24  8  1  0
 21 11  1  0
 20 16  2  0
  1 25  1  0
  1 26  1  0
  1 27  1  0
  6 28  1  0
 12 29  1  0
 12 30  1  0
 13 31  1  0
 13 32  1  0
 15 33  1  0
 17 34  1  0
 18 35  1  0
 19 36  1  0
 21 37  1  0
 21 38  1  0
 22 39  1  0
 23 40  1  0
M  END
>  <Energy>  (865) 
896.4710897764129

>  <compound_id>  (865) 
45297

>  <target_id>  (865) 
1

>  <reference_id>  (865) 
107

>  <inspiration_ids>  (865) 
[107, 7]

>  <energy_score>  (865) 
780.2800176009846

>  <distance_score>  (865) 
9.92132326457913

>  <path>  (865) 
/opt/xchem-fragalysis-2/maxwin/BulkDock/SCRATCH/511022/C45297-P107/C45297-P107.minimised.mol

>  <scratch_subdir>  (865) 
/opt/xchem-fragalysis-2/maxwin/BulkDock/SCRATCH/511022/C45297-P107

>  <fragmenstein_runtime>  (865) 
18.646591663360596

>  <fragmenstein_outcome>  (865) 
too moved

>  <fragmenstein_mode>  (865) 
expansion

>  <fragmenstein_error>  (865) 


$$$$
C45297-P7
     RDKit          3D

 40 43  0  0  0  0  0  0  0  0999 V2000
  -11.2123  -24.9771   26.9967 C   0  0  0  0  0  0  0  0  0  0  0  0
  -11.4853  -23.8038   27.7565 O   0  0  0  0  0  0  0  0  0  0  0  0
  -11.2554  -23.9415   29.0905 C   0  0  0  0  0  0  0  0  0  0  0  0
  -10.8372  -24.9640   29.6186 O   0  0  0  0  0  0  0  0  0  0  0  0
  -11.5332  -22.7286   29.7840 C   0  0  0  0  0  0  0  0  0  0  0  0
  -11.4170  -22.4255   31.1377 C   0  0  0  0  0  0  0  0  0  0  0  0
  -11.9721  -21.2095   31.4235 N   0  0  0  0  0  0  0  0  0  0  0  0
  -12.3489  -20.7492   30.2344 C   0  0  0  0  0  0  0  0  0  0  0  0
  -12.9458  -19.1707   29.5279 N   0  0  0  0  0  0  0  0  0  0  0  0
  -12.3673  -17.5180   29.8101 C   0  0  0  0  0  0  0  0  0  0  0  0
  -12.8886  -16.6268   31.4415 N   0  0  0  0  0  0  0  0  0  0  0  0
  -13.1979  -17.1871   33.2787 C   0  0  0  0  0  0  0  0  0  0  0  0
  -14.2629  -16.7777   34.3075 C   0  0  0  0  0  0  0  0  0  0  0  0
  -14.7502  -15.5201   34.0027 O   0  0  0  0  0  0  0  0  0  0  0  0
  -13.7049  -14.6711   33.5372 C   0  0  0  0  0  0  0  0  0  0  0  0
  -14.2213  -13.1744   33.9230 C   0  0  0  0  0  0  0  0  0  0  0  0
  -15.2380  -12.3215   33.3974 C   0  0  0  0  0  0  0  0  0  0  0  0
  -15.1638  -11.1328   34.0979 C   0  0  0  0  0  0  0  0  0  0  0  0
  -14.1987  -11.3211   35.0268 N   0  0  0  0  0  0  0  0  0  0  0  0
  -13.6762  -12.5517   34.9846 N   0  0  0  0  0  0  0  0  0  0  0  0
  -12.7476  -15.1896   31.9921 C   0  0  0  0  0  0  0  0  0  0  0  0
  -12.2074  -18.9834   28.7696 C   0  0  0  0  0  0  0  0  0  0  0  0
  -12.1296  -20.6689   28.3713 C   0  0  0  0  0  0  0  0  0  0  0  0
  -11.9398  -21.5383   29.3209 N   0  0  0  0  0  0  0  0  0  0  0  0
  -10.2522  -25.4148   27.2777 H   0  0  0  0  0  0  0  0  0  0  0  0
  -12.0062  -25.7154   27.1367 H   0  0  0  0  0  0  0  0  0  0  0  0
  -11.1798  -24.6976   25.9405 H   0  0  0  0  0  0  0  0  0  0  0  0
  -11.0235  -23.0387   31.9399 H   0  0  0  0  0  0  0  0  0  0  0  0
  -12.4602  -16.5755   33.8555 H   0  0  0  0  0  0  0  0  0  0  0  0
  -12.8002  -18.1659   33.6047 H   0  0  0  0  0  0  0  0  0  0  0  0
  -15.0813  -17.4934   34.4585 H   0  0  0  0  0  0  0  0  0  0  0  0
  -13.8106  -16.7475   35.3109 H   0  0  0  0  0  0  0  0  0  0  0  0
  -12.9598  -14.8692   34.2934 H   0  0  0  0  0  0  0  0  0  0  0  0
  -15.8913  -12.5191   32.5622 H   0  0  0  0  0  0  0  0  0  0  0  0
  -15.6865  -10.1955   34.0005 H   0  0  0  0  0  0  0  0  0  0  0  0
  -13.8520  -10.6745   35.7292 H   0  0  0  0  0  0  0  0  0  0  0  0
  -11.7487  -15.1396   32.3833 H   0  0  0  0  0  0  0  0  0  0  0  0
  -12.9401  -14.6385   31.1036 H   0  0  0  0  0  0  0  0  0  0  0  0
  -12.0018  -18.1055   28.1145 H   0  0  0  0  0  0  0  0  0  0  0  0
  -11.9288  -21.1178   27.3938 H   0  0  0  0  0  0  0  0  0  0  0  0
  1  2  1  0
  2  3  1  0
  3  4  2  0
  3  5  1  0
  5  6  2  0
  6  7  1  0
  7  8  2  0
  8  9  1  0
  9 10  2  0
 10 11  1  0
 11 12  1  0
 12 13  1  0
 13 14  1  0
 14 15  1  0
 15 16  1  0
 16 17  1  0
 17 18  2  0
 18 19  1  0
 19 20  1  0
 15 21  1  0
 10 22  1  0
 22 23  2  0
 23 24  1  0
 24  5  1  0
 24  8  1  0
 21 11  1  0
 20 16  2  0
  1 25  1  0
  1 26  1  0
  1 27  1  0
  6 28  1  0
 12 29  1  0
 12 30  1  0
 13 31  1  0
 13 32  1  0
 15 33  1  0
 17 34  1  0
 18 35  1  0
 19 36  1  0
 21 37  1  0
 21 38  1  0
 22 39  1  0
 23 40  1  0
M  END
>  <Energy>  (866) 
961.07750393080221

>  <compound_id>  (866) 
45297

>  <target_id>  (866) 
1

>  <reference_id>  (866) 
7

>  <inspiration_ids>  (866) 
[107, 7]

>  <energy_score>  (866) 
844.8864317553655

>  <distance_score>  (866) 
8.38339141977678

>  <path>  (866) 
/opt/xchem-fragalysis-2/maxwin/BulkDock/SCRATCH/511022/C45297-P7/C45297-P7.minimised.mol

>  <scratch_subdir>  (866) 
/opt/xchem-fragalysis-2/maxwin/BulkDock/SCRATCH/511022/C45297-P7

>  <fragmenstein_runtime>  (866) 
16.56707739830017

>  <fragmenstein_outcome>  (866) 
too moved

>  <fragmenstein_mode>  (866) 
expansion

>  <fragmenstein_error>  (866) 


$$$$
C45298-P107
     RDKit          3D

 42 44  0  0  0  0  0  0  0  0999 V2000
  -14.2457  -15.6718   35.2031 C   0  0  0  0  0  0  0  0  0  0  0  0
  -15.2330  -16.7076   35.6604 N   0  0  0  0  0  0  0  0  0  0  0  0
  -15.9069  -15.4714   36.2876 C   0  0  0  0  0  0  0  0  0  0  0  0
  -15.3685  -14.7255   37.5542 C   0  0  0  0  0  0  0  0  0  0  0  0
  -15.1906  -15.6361   38.6440 O   0  0  0  0  0  0  0  0  0  0  0  0
  -16.3503  -13.6015   37.9975 C   0  0  0  0  0  0  0  0  0  0  0  0
  -15.7543  -12.2956   38.2674 N   0  0  0  0  0  0  0  0  0  0  0  0
  -14.7178  -11.9049   39.1748 C   0  0  0  0  0  0  0  0  0  0  0  0
  -14.0169  -12.5610   39.8902 O   0  0  0  0  0  0  0  0  0  0  0  0
  -14.5897  -10.4022   39.2077 C   0  0  0  0  0  0  0  0  0  0  0  0
  -13.6288   -9.6418   39.9408 C   0  0  0  0  0  0  0  0  0  0  0  0
  -13.9931   -8.3257   39.7968 C   0  0  0  0  0  0  0  0  0  0  0  0
  -15.1007   -8.3396   39.0083 N   0  0  0  0  0  0  0  0  0  0  0  0
  -15.4383   -9.5652   38.5590 N   0  0  0  0  0  0  0  0  0  0  0  0
  -14.5503  -17.7983   36.2622 C   0  0  0  0  0  0  0  0  0  0  0  0
  -14.2446  -17.9911   37.4083 O   0  0  0  0  0  0  0  0  0  0  0  0
  -14.2789  -18.8514   35.2499 C   0  0  0  0  0  0  0  0  0  0  0  0
  -15.2020  -19.5805   34.5135 C   0  0  0  0  0  0  0  0  0  0  0  0
  -14.4802  -20.5509   33.8585 N   0  0  0  0  0  0  0  0  0  0  0  0
  -14.8949  -21.5632   33.0016 C   0  0  0  0  0  0  0  0  0  0  0  0
  -13.9746  -22.3460   32.4218 C   0  0  0  0  0  0  0  0  0  0  0  0
  -12.5684  -22.0499   32.7728 C   0  0  0  0  0  0  0  0  0  0  0  0
  -12.1686  -21.0926   33.5471 N   0  0  0  0  0  0  0  0  0  0  0  0
  -13.1326  -20.3324   34.1441 C   0  0  0  0  0  0  0  0  0  0  0  0
  -13.0044  -19.3150   34.9729 N   0  0  0  0  0  0  0  0  0  0  0  0
  -14.6057  -14.7914   34.6520 H   0  0  0  0  0  0  0  0  0  0  0  0
  -13.6400  -16.1907   34.4435 H   0  0  0  0  0  0  0  0  0  0  0  0
  -13.5029  -15.4433   35.9718 H   0  0  0  0  0  0  0  0  0  0  0  0
  -16.8267  -15.9507   36.6599 H   0  0  0  0  0  0  0  0  0  0  0  0
  -16.2920  -14.7719   35.5296 H   0  0  0  0  0  0  0  0  0  0  0  0
  -14.4132  -14.2680   37.3428 H   0  0  0  0  0  0  0  0  0  0  0  0
  -14.7055  -16.4231   38.3176 H   0  0  0  0  0  0  0  0  0  0  0  0
  -16.8696  -13.8952   38.9162 H   0  0  0  0  0  0  0  0  0  0  0  0
  -17.1032  -13.4150   37.2246 H   0  0  0  0  0  0  0  0  0  0  0  0
  -16.0796  -11.4737   37.7636 H   0  0  0  0  0  0  0  0  0  0  0  0
  -12.8158  -10.0384   40.5348 H   0  0  0  0  0  0  0  0  0  0  0  0
  -13.5828   -7.4103   40.1996 H   0  0  0  0  0  0  0  0  0  0  0  0
  -15.6716   -7.5504   38.7248 H   0  0  0  0  0  0  0  0  0  0  0  0
  -16.2801  -19.5350   34.4676 H   0  0  0  0  0  0  0  0  0  0  0  0
  -15.9564  -21.6804   32.8238 H   0  0  0  0  0  0  0  0  0  0  0  0
  -14.1799  -23.1420   31.7302 H   0  0  0  0  0  0  0  0  0  0  0  0
  -11.8175  -22.7036   32.2992 H   0  0  0  0  0  0  0  0  0  0  0  0
  1  2  1  0
  2  3  1  0
  3  4  1  0
  4  5  1  0
  4  6  1  0
  6  7  1  0
  7  8  1  0
  8  9  2  0
  8 10  1  0
 10 11  1  0
 11 12  2  0
 12 13  1  0
 13 14  1  0
  2 15  1  0
 15 16  2  0
 15 17  1  0
 17 18  2  0
 18 19  1  0
 19 20  1  0
 20 21  2  0
 21 22  1  0
 22 23  2  0
 23 24  1  0
 24 25  2  0
 14 10  2  0
 25 17  1  0
 24 19  1  0
  1 26  1  0
  1 27  1  0
  1 28  1  0
  3 29  1  0
  3 30  1  0
  4 31  1  0
  5 32  1  0
  6 33  1  0
  6 34  1  0
  7 35  1  0
 11 36  1  0
 12 37  1  0
 13 38  1  0
 18 39  1  0
 20 40  1  0
 21 41  1  0
 22 42  1  0
M  END
>  <Energy>  (867) 
181.04589834064336

>  <compound_id>  (867) 
45298

>  <target_id>  (867) 
1

>  <reference_id>  (867) 
107

>  <inspiration_ids>  (867) 
[107, 7]

>  <energy_score>  (867) 
15.544625068773598

>  <distance_score>  (867) 
7.121409051719655

>  <path>  (867) 
/opt/xchem-fragalysis-2/maxwin/BulkDock/SCRATCH/511022/C45298-P107/C45298-P107.minimised.mol

>  <scratch_subdir>  (867) 
/opt/xchem-fragalysis-2/maxwin/BulkDock/SCRATCH/511022/C45298-P107

>  <fragmenstein_runtime>  (867) 
15.231404542922974

>  <fragmenstein_outcome>  (867) 
too moved

>  <fragmenstein_mode>  (867) 
expansion

>  <fragmenstein_error>  (867) 


$$$$
C45298-P7
     RDKit          3D

 42 44  0  0  0  0  0  0  0  0999 V2000
  -15.4646  -14.2390   34.7725 C   0  0  0  0  0  0  0  0  0  0  0  0
  -16.4337  -15.0639   35.5795 N   0  0  0  0  0  0  0  0  0  0  0  0
  -17.0316  -13.6740   35.8665 C   0  0  0  0  0  0  0  0  0  0  0  0
  -16.3528  -12.5636   36.7506 C   0  0  0  0  0  0  0  0  0  0  0  0
  -15.8556  -13.0939   37.9810 O   0  0  0  0  0  0  0  0  0  0  0  0
  -17.3642  -11.4291   37.0542 C   0  0  0  0  0  0  0  0  0  0  0  0
  -16.7663  -10.1046   37.1333 N   0  0  0  0  0  0  0  0  0  0  0  0
  -16.8565   -8.9785   36.2519 C   0  0  0  0  0  0  0  0  0  0  0  0
  -17.3836   -8.8631   35.1822 O   0  0  0  0  0  0  0  0  0  0  0  0
  -16.2355   -7.7660   36.8832 C   0  0  0  0  0  0  0  0  0  0  0  0
  -16.2616   -6.4243   36.3971 C   0  0  0  0  0  0  0  0  0  0  0  0
  -15.5850   -5.6706   37.3267 C   0  0  0  0  0  0  0  0  0  0  0  0
  -15.2068   -6.5457   38.2989 N   0  0  0  0  0  0  0  0  0  0  0  0
  -15.5817   -7.8169   38.0630 N   0  0  0  0  0  0  0  0  0  0  0  0
  -15.7259  -15.9686   36.4280 C   0  0  0  0  0  0  0  0  0  0  0  0
  -15.3387  -15.8362   37.5570 O   0  0  0  0  0  0  0  0  0  0  0  0
  -15.4468  -17.2671   35.7296 C   0  0  0  0  0  0  0  0  0  0  0  0
  -16.3615  -18.1826   35.2350 C   0  0  0  0  0  0  0  0  0  0  0  0
  -15.6313  -19.2352   34.7398 N   0  0  0  0  0  0  0  0  0  0  0  0
  -16.0524  -20.4015   34.1101 C   0  0  0  0  0  0  0  0  0  0  0  0
  -15.1445  -21.3003   33.7057 C   0  0  0  0  0  0  0  0  0  0  0  0
  -13.7298  -20.9413   34.0014 C   0  0  0  0  0  0  0  0  0  0  0  0
  -13.3225  -19.8429   34.5710 N   0  0  0  0  0  0  0  0  0  0  0  0
  -14.2854  -18.9469   34.9499 C   0  0  0  0  0  0  0  0  0  0  0  0
  -14.1616  -17.7520   35.5010 N   0  0  0  0  0  0  0  0  0  0  0  0
  -14.7635  -13.6189   35.3213 H   0  0  0  0  0  0  0  0  0  0  0  0
  -15.9112  -13.7053   33.9229 H   0  0  0  0  0  0  0  0  0  0  0  0
  -14.7925  -14.9679   34.2958 H   0  0  0  0  0  0  0  0  0  0  0  0
  -17.8969  -13.9796   36.4768 H   0  0  0  0  0  0  0  0  0  0  0  0
  -17.5048  -13.2397   34.9713 H   0  0  0  0  0  0  0  0  0  0  0  0
  -15.5065  -12.1021   36.2340 H   0  0  0  0  0  0  0  0  0  0  0  0
  -16.0616  -14.0504   38.0452 H   0  0  0  0  0  0  0  0  0  0  0  0
  -18.1170  -11.3696   36.2609 H   0  0  0  0  0  0  0  0  0  0  0  0
  -17.8725  -11.6043   38.0080 H   0  0  0  0  0  0  0  0  0  0  0  0
  -16.3100   -9.8121   38.0005 H   0  0  0  0  0  0  0  0  0  0  0  0
  -16.7162   -6.0790   35.4796 H   0  0  0  0  0  0  0  0  0  0  0  0
  -15.3515   -4.6168   37.3792 H   0  0  0  0  0  0  0  0  0  0  0  0
  -14.6905   -6.3539   39.1521 H   0  0  0  0  0  0  0  0  0  0  0  0
  -17.4423  -18.1698   35.2194 H   0  0  0  0  0  0  0  0  0  0  0  0
  -17.1177  -20.5452   33.9842 H   0  0  0  0  0  0  0  0  0  0  0  0
  -15.3748  -22.2441   33.2328 H   0  0  0  0  0  0  0  0  0  0  0  0
  -12.9815  -21.6927   33.6986 H   0  0  0  0  0  0  0  0  0  0  0  0
  1  2  1  0
  2  3  1  0
  3  4  1  0
  4  5  1  0
  4  6  1  0
  6  7  1  0
  7  8  1  0
  8  9  2  0
  8 10  1  0
 10 11  1  0
 11 12  2  0
 12 13  1  0
 13 14  1  0
  2 15  1  0
 15 16  2  0
 15 17  1  0
 17 18  2  0
 18 19  1  0
 19 20  1  0
 20 21  2  0
 21 22  1  0
 22 23  2  0
 23 24  1  0
 24 25  2  0
 14 10  2  0
 25 17  1  0
 24 19  1  0
  1 26  1  0
  1 27  1  0
  1 28  1  0
  3 29  1  0
  3 30  1  0
  4 31  1  0
  5 32  1  0
  6 33  1  0
  6 34  1  0
  7 35  1  0
 11 36  1  0
 12 37  1  0
 13 38  1  0
 18 39  1  0
 20 40  1  0
 21 41  1  0
 22 42  1  0
M  END
>  <Energy>  (868) 
178.89238888175157

>  <compound_id>  (868) 
45298

>  <target_id>  (868) 
1

>  <reference_id>  (868) 
7

>  <inspiration_ids>  (868) 
[107, 7]

>  <energy_score>  (868) 
13.391115609882206

>  <distance_score>  (868) 
7.204110075171555

>  <path>  (868) 
/opt/xchem-fragalysis-2/maxwin/BulkDock/SCRATCH/511022/C45298-P7/C45298-P7.minimised.mol

>  <scratch_subdir>  (868) 
/opt/xchem-fragalysis-2/maxwin/BulkDock/SCRATCH/511022/C45298-P7

>  <fragmenstein_runtime>  (868) 
16.615005254745483

>  <fragmenstein_outcome>  (868) 
too moved

>  <fragmenstein_mode>  (868) 
expansion

>  <fragmenstein_error>  (868) 


$$$$
C48977-P107
     RDKit          3D

 41 44  0  0  0  0  0  0  0  0999 V2000
  -12.6601  -21.4239   33.3561 C   0  0  0  0  0  0  0  0  0  0  0  0
  -13.5743  -20.4050   34.0249 C   0  0  0  0  0  0  0  0  0  0  0  0
  -15.0459  -20.6148   33.8054 C   0  0  0  0  0  0  0  0  0  0  0  0
  -15.8381  -19.6333   34.2589 C   0  0  0  0  0  0  0  0  0  0  0  0
  -15.2835  -18.5383   34.9170 N   0  0  0  0  0  0  0  0  0  0  0  0
  -15.8983  -17.4262   35.4484 C   0  0  0  0  0  0  0  0  0  0  0  0
  -14.9189  -16.6897   36.1024 C   0  0  0  0  0  0  0  0  0  0  0  0
  -15.1417  -15.7003   37.2506 C   0  0  0  0  0  0  0  0  0  0  0  0
  -15.1121  -14.2269   37.1665 N   0  0  0  0  0  0  0  0  0  0  0  0
  -16.0962  -13.2316   37.5590 C   0  0  0  0  0  0  0  0  0  0  0  0
  -17.2111  -13.3623   37.9735 O   0  0  0  0  0  0  0  0  0  0  0  0
  -15.6382  -11.7858   37.5560 C   0  0  0  0  0  0  0  0  0  0  0  0
  -14.3953  -11.2375   37.3039 N   0  0  0  0  0  0  0  0  0  0  0  0
  -14.2155   -9.9550   37.7236 N   0  0  0  0  0  0  0  0  0  0  0  0
  -15.4225   -9.6069   38.1523 C   0  0  0  0  0  0  0  0  0  0  0  0
  -16.3559  -10.6578   37.9960 C   0  0  0  0  0  0  0  0  0  0  0  0
  -17.7787  -10.5018   38.4165 C   0  0  0  0  0  0  0  0  0  0  0  0
  -18.1609   -9.0277   38.6291 C   0  0  0  0  0  0  0  0  0  0  0  0
  -17.0946   -8.2739   39.4372 C   0  0  0  0  0  0  0  0  0  0  0  0
  -15.7409   -8.2639   38.7115 C   0  0  0  0  0  0  0  0  0  0  0  0
  -13.6898  -17.3242   35.8722 N   0  0  0  0  0  0  0  0  0  0  0  0
  -13.9185  -18.4234   35.1545 C   0  0  0  0  0  0  0  0  0  0  0  0
  -13.0615  -19.3888   34.6739 N   0  0  0  0  0  0  0  0  0  0  0  0
  -12.3273  -22.1718   34.0746 H   0  0  0  0  0  0  0  0  0  0  0  0
  -13.1785  -21.9340   32.5391 H   0  0  0  0  0  0  0  0  0  0  0  0
  -11.7866  -20.9153   32.9415 H   0  0  0  0  0  0  0  0  0  0  0  0
  -15.4004  -21.5088   33.3072 H   0  0  0  0  0  0  0  0  0  0  0  0
  -16.9160  -19.6578   34.1576 H   0  0  0  0  0  0  0  0  0  0  0  0
  -16.9744  -17.3245   35.4436 H   0  0  0  0  0  0  0  0  0  0  0  0
  -14.4039  -15.9495   38.0225 H   0  0  0  0  0  0  0  0  0  0  0  0
  -16.1158  -15.9438   37.6953 H   0  0  0  0  0  0  0  0  0  0  0  0
  -14.2420  -13.7605   36.9417 H   0  0  0  0  0  0  0  0  0  0  0  0
  -13.5735  -11.7173   36.9473 H   0  0  0  0  0  0  0  0  0  0  0  0
  -18.4466  -10.9412   37.6672 H   0  0  0  0  0  0  0  0  0  0  0  0
  -17.9308  -11.0485   39.3554 H   0  0  0  0  0  0  0  0  0  0  0  0
  -19.1274   -8.9726   39.1427 H   0  0  0  0  0  0  0  0  0  0  0  0
  -18.2868   -8.5366   37.6555 H   0  0  0  0  0  0  0  0  0  0  0  0
  -16.9828   -8.7537   40.4180 H   0  0  0  0  0  0  0  0  0  0  0  0
  -17.4197   -7.2435   39.6197 H   0  0  0  0  0  0  0  0  0  0  0  0
  -15.7816   -7.5367   37.8921 H   0  0  0  0  0  0  0  0  0  0  0  0
  -14.9564   -7.9373   39.4032 H   0  0  0  0  0  0  0  0  0  0  0  0
  1  2  1  0
  2  3  1  0
  3  4  2  0
  4  5  1  0
  5  6  1  0
  6  7  2  0
  7  8  1  0
  8  9  1  0
  9 10  1  0
 10 11  2  0
 10 12  1  0
 12 13  1  0
 13 14  1  0
 14 15  2  0
 15 16  1  0
 16 17  1  0
 17 18  1  0
 18 19  1  0
 19 20  1  0
  7 21  1  0
 21 22  2  0
 22 23  1  0
 23  2  2  0
 22  5  1  0
 16 12  2  0
 20 15  1  0
  1 24  1  0
  1 25  1  0
  1 26  1  0
  3 27  1  0
  4 28  1  0
  6 29  1  0
  8 30  1  0
  8 31  1  0
  9 32  1  0
 13 33  1  0
 17 34  1  0
 17 35  1  0
 18 36  1  0
 18 37  1  0
 19 38  1  0
 19 39  1  0
 20 40  1  0
 20 41  1  0
M  END
>  <Energy>  (869) 
32.543726291071707

>  <compound_id>  (869) 
48977

>  <target_id>  (869) 
1

>  <reference_id>  (869) 
107

>  <inspiration_ids>  (869) 
[107, 7]

>  <energy_score>  (869) 
-9.89586957342945

>  <distance_score>  (869) 
8.73292822006405

>  <path>  (869) 
/opt/xchem-fragalysis-2/maxwin/BulkDock/SCRATCH/511022/C48977-P107/C48977-P107.minimised.mol

>  <scratch_subdir>  (869) 
/opt/xchem-fragalysis-2/maxwin/BulkDock/SCRATCH/511022/C48977-P107

>  <fragmenstein_runtime>  (869) 
18.50447678565979

>  <fragmenstein_outcome>  (869) 
too moved

>  <fragmenstein_mode>  (869) 
expansion

>  <fragmenstein_error>  (869) 


$$$$
C48977-P7
     RDKit          3D

 41 44  0  0  0  0  0  0  0  0999 V2000
  -12.9981  -21.6684   33.7129 C   0  0  0  0  0  0  0  0  0  0  0  0
  -14.2173  -20.8310   33.9700 C   0  0  0  0  0  0  0  0  0  0  0  0
  -15.5295  -21.3826   33.5181 C   0  0  0  0  0  0  0  0  0  0  0  0
  -16.5749  -20.5647   33.6913 C   0  0  0  0  0  0  0  0  0  0  0  0
  -16.3773  -19.3149   34.2621 N   0  0  0  0  0  0  0  0  0  0  0  0
  -17.2593  -18.2878   34.4636 C   0  0  0  0  0  0  0  0  0  0  0  0
  -16.5332  -17.2290   34.9941 C   0  0  0  0  0  0  0  0  0  0  0  0
  -17.1232  -15.9512   35.5481 C   0  0  0  0  0  0  0  0  0  0  0  0
  -16.4207  -14.6846   35.4220 N   0  0  0  0  0  0  0  0  0  0  0  0
  -16.5172  -13.6486   34.4331 C   0  0  0  0  0  0  0  0  0  0  0  0
  -17.1424  -13.5987   33.4159 O   0  0  0  0  0  0  0  0  0  0  0  0
  -15.7800  -12.4281   34.8333 C   0  0  0  0  0  0  0  0  0  0  0  0
  -15.1086  -11.6089   33.9396 N   0  0  0  0  0  0  0  0  0  0  0  0
  -14.5320  -10.5172   34.5020 N   0  0  0  0  0  0  0  0  0  0  0  0
  -14.9892  -10.5336   35.7503 C   0  0  0  0  0  0  0  0  0  0  0  0
  -15.7675  -11.6875   36.0164 C   0  0  0  0  0  0  0  0  0  0  0  0
  -16.4598  -11.8827   37.3210 C   0  0  0  0  0  0  0  0  0  0  0  0
  -16.5563  -10.5783   38.1265 C   0  0  0  0  0  0  0  0  0  0  0  0
  -15.2228   -9.8193   38.1331 C   0  0  0  0  0  0  0  0  0  0  0  0
  -14.7957   -9.4179   36.7137 C   0  0  0  0  0  0  0  0  0  0  0  0
  -15.2093  -17.6097   35.1008 N   0  0  0  0  0  0  0  0  0  0  0  0
  -15.1345  -18.8706   34.6934 C   0  0  0  0  0  0  0  0  0  0  0  0
  -14.0425  -19.6653   34.5316 N   0  0  0  0  0  0  0  0  0  0  0  0
  -12.6591  -21.5419   32.6847 H   0  0  0  0  0  0  0  0  0  0  0  0
  -12.2182  -21.3161   34.3765 H   0  0  0  0  0  0  0  0  0  0  0  0
  -13.1858  -22.7141   33.9579 H   0  0  0  0  0  0  0  0  0  0  0  0
  -15.5911  -22.3754   33.0953 H   0  0  0  0  0  0  0  0  0  0  0  0
  -17.5834  -20.8332   33.4045 H   0  0  0  0  0  0  0  0  0  0  0  0
  -18.3145  -18.3958   34.2547 H   0  0  0  0  0  0  0  0  0  0  0  0
  -17.2899  -16.0977   36.6214 H   0  0  0  0  0  0  0  0  0  0  0  0
  -18.1055  -15.7999   35.0842 H   0  0  0  0  0  0  0  0  0  0  0  0
  -15.7331  -14.4184   36.1106 H   0  0  0  0  0  0  0  0  0  0  0  0
  -15.0082  -11.7433   32.9332 H   0  0  0  0  0  0  0  0  0  0  0  0
  -15.9071  -12.6249   37.9079 H   0  0  0  0  0  0  0  0  0  0  0  0
  -17.4673  -12.2833   37.1607 H   0  0  0  0  0  0  0  0  0  0  0  0
  -16.8628  -10.8057   39.1538 H   0  0  0  0  0  0  0  0  0  0  0  0
  -17.3339   -9.9353   37.6947 H   0  0  0  0  0  0  0  0  0  0  0  0
  -14.4500  -10.4561   38.5829 H   0  0  0  0  0  0  0  0  0  0  0  0
  -15.3025   -8.9229   38.7583 H   0  0  0  0  0  0  0  0  0  0  0  0
  -13.7537   -9.1052   36.7341 H   0  0  0  0  0  0  0  0  0  0  0  0
  -15.3963   -8.5607   36.3867 H   0  0  0  0  0  0  0  0  0  0  0  0
  1  2  1  0
  2  3  1  0
  3  4  2  0
  4  5  1  0
  5  6  1  0
  6  7  2  0
  7  8  1  0
  8  9  1  0
  9 10  1  0
 10 11  2  0
 10 12  1  0
 12 13  1  0
 13 14  1  0
 14 15  2  0
 15 16  1  0
 16 17  1  0
 17 18  1  0
 18 19  1  0
 19 20  1  0
  7 21  1  0
 21 22  2  0
 22 23  1  0
 23  2  2  0
 22  5  1  0
 16 12  2  0
 20 15  1  0
  1 24  1  0
  1 25  1  0
  1 26  1  0
  3 27  1  0
  4 28  1  0
  6 29  1  0
  8 30  1  0
  8 31  1  0
  9 32  1  0
 13 33  1  0
 17 34  1  0
 17 35  1  0
 18 36  1  0
 18 37  1  0
 19 38  1  0
 19 39  1  0
 20 40  1  0
 20 41  1  0
M  END
>  <Energy>  (870) 
14.109784232164976

>  <compound_id>  (870) 
48977

>  <target_id>  (870) 
1

>  <reference_id>  (870) 
7

>  <inspiration_ids>  (870) 
[107, 7]

>  <energy_score>  (870) 
-28.32981163233802

>  <distance_score>  (870) 
9.087370459697539

>  <path>  (870) 
/opt/xchem-fragalysis-2/maxwin/BulkDock/SCRATCH/511022/C48977-P7/C48977-P7.minimised.mol

>  <scratch_subdir>  (870) 
/opt/xchem-fragalysis-2/maxwin/BulkDock/SCRATCH/511022/C48977-P7

>  <fragmenstein_runtime>  (870) 
17.33341145515442

>  <fragmenstein_outcome>  (870) 
too moved

>  <fragmenstein_mode>  (870) 
expansion

>  <fragmenstein_error>  (870) 


$$$$
C45284-P107
     RDKit          3D

 38 41  0  0  0  0  0  0  0  0999 V2000
  -16.7887  -16.5122   38.5078 O   0  0  0  0  0  0  0  0  0  0  0  0
  -16.2412  -16.1688   37.4972 C   0  0  0  0  0  0  0  0  0  0  0  0
  -16.0264  -16.8712   36.2630 N   0  0  0  0  0  0  0  0  0  0  0  0
  -16.4852  -18.1714   35.8195 C   0  0  0  0  0  0  0  0  0  0  0  0
  -15.6423  -19.0390   34.9229 C   0  0  0  0  0  0  0  0  0  0  0  0
  -16.1220  -20.1011   34.1676 C   0  0  0  0  0  0  0  0  0  0  0  0
  -15.0278  -20.7943   33.7273 N   0  0  0  0  0  0  0  0  0  0  0  0
  -14.9485  -21.9634   32.9839 C   0  0  0  0  0  0  0  0  0  0  0  0
  -13.7478  -22.4834   32.7001 C   0  0  0  0  0  0  0  0  0  0  0  0
  -12.5975  -21.7140   33.2354 C   0  0  0  0  0  0  0  0  0  0  0  0
  -12.6550  -20.6085   33.9171 N   0  0  0  0  0  0  0  0  0  0  0  0
  -13.9042  -20.1165   34.1896 C   0  0  0  0  0  0  0  0  0  0  0  0
  -14.2654  -19.0173   34.8422 N   0  0  0  0  0  0  0  0  0  0  0  0
  -15.8168  -14.7084   37.5561 C   0  0  0  0  0  0  0  0  0  0  0  0
  -15.5017  -14.1812   38.8246 C   0  0  0  0  0  0  0  0  0  0  0  0
  -15.3100  -12.8018   39.0322 C   0  0  0  0  0  0  0  0  0  0  0  0
  -15.4451  -11.8859   37.9801 C   0  0  0  0  0  0  0  0  0  0  0  0
  -15.3068  -10.4366   38.2542 C   0  0  0  0  0  0  0  0  0  0  0  0
  -14.3196   -9.7951   39.0637 C   0  0  0  0  0  0  0  0  0  0  0  0
  -14.7169   -8.4846   39.1841 C   0  0  0  0  0  0  0  0  0  0  0  0
  -15.8481   -8.3807   38.4375 N   0  0  0  0  0  0  0  0  0  0  0  0
  -16.2019   -9.5257   37.8278 N   0  0  0  0  0  0  0  0  0  0  0  0
  -15.7593  -12.4045   36.7106 C   0  0  0  0  0  0  0  0  0  0  0  0
  -15.9382  -13.8010   36.4961 C   0  0  0  0  0  0  0  0  0  0  0  0
  -15.4529  -16.3009   35.6548 H   0  0  0  0  0  0  0  0  0  0  0  0
  -17.4447  -17.9862   35.3223 H   0  0  0  0  0  0  0  0  0  0  0  0
  -16.7191  -18.7465   36.7238 H   0  0  0  0  0  0  0  0  0  0  0  0
  -17.1263  -20.4606   33.9941 H   0  0  0  0  0  0  0  0  0  0  0  0
  -15.8740  -22.4320   32.6708 H   0  0  0  0  0  0  0  0  0  0  0  0
  -13.5854  -23.4000   32.1526 H   0  0  0  0  0  0  0  0  0  0  0  0
  -11.6122  -22.1458   33.0002 H   0  0  0  0  0  0  0  0  0  0  0  0
  -15.4516  -14.8487   39.6838 H   0  0  0  0  0  0  0  0  0  0  0  0
  -15.0984  -12.4510   40.0394 H   0  0  0  0  0  0  0  0  0  0  0  0
  -13.4661  -10.2626   39.5357 H   0  0  0  0  0  0  0  0  0  0  0  0
  -14.3080   -7.6474   39.7316 H   0  0  0  0  0  0  0  0  0  0  0  0
  -16.4397   -7.5678   38.3026 H   0  0  0  0  0  0  0  0  0  0  0  0
  -15.8809  -11.7223   35.8712 H   0  0  0  0  0  0  0  0  0  0  0  0
  -16.2408  -14.1396   35.5095 H   0  0  0  0  0  0  0  0  0  0  0  0
  1  2  2  0
  2  3  1  0
  3  4  1  0
  4  5  1  0
  5  6  2  0
  6  7  1  0
  7  8  1  0
  8  9  2  0
  9 10  1  0
 10 11  2  0
 11 12  1  0
 12 13  2  0
  2 14  1  0
 14 15  2  0
 15 16  1  0
 16 17  2  0
 17 18  1  0
 18 19  1  0
 19 20  2  0
 20 21  1  0
 21 22  1  0
 17 23  1  0
 23 24  2  0
 13  5  1  0
 24 14  1  0
 12  7  1  0
 22 18  2  0
  3 25  1  0
  4 26  1  0
  4 27  1  0
  6 28  1  0
  8 29  1  0
  9 30  1  0
 10 31  1  0
 15 32  1  0
 16 33  1  0
 19 34  1  0
 20 35  1  0
 21 36  1  0
 23 37  1  0
 24 38  1  0
M  END
>  <Energy>  (871) 
72.398774302491731

>  <compound_id>  (871) 
45284

>  <target_id>  (871) 
1

>  <reference_id>  (871) 
107

>  <inspiration_ids>  (871) 
[107, 7]

>  <energy_score>  (871) 
-8.061047273395957

>  <distance_score>  (871) 
7.2981120243024895

>  <path>  (871) 
/opt/xchem-fragalysis-2/maxwin/BulkDock/SCRATCH/511022/C45284-P107/C45284-P107.minimised.mol

>  <scratch_subdir>  (871) 
/opt/xchem-fragalysis-2/maxwin/BulkDock/SCRATCH/511022/C45284-P107

>  <fragmenstein_runtime>  (871) 
12.454520225524902

>  <fragmenstein_outcome>  (871) 
too moved

>  <fragmenstein_mode>  (871) 
expansion

>  <fragmenstein_error>  (871) 


$$$$
C45284-P7
     RDKit          3D

 38 41  0  0  0  0  0  0  0  0999 V2000
  -17.0628  -14.4224   38.6453 O   0  0  0  0  0  0  0  0  0  0  0  0
  -16.6102  -14.3076   37.5423 C   0  0  0  0  0  0  0  0  0  0  0  0
  -16.2897  -15.2997   36.5526 N   0  0  0  0  0  0  0  0  0  0  0  0
  -16.5031  -16.7365   36.5432 C   0  0  0  0  0  0  0  0  0  0  0  0
  -15.7212  -17.6230   35.6116 C   0  0  0  0  0  0  0  0  0  0  0  0
  -14.4165  -18.0895   35.6506 C   0  0  0  0  0  0  0  0  0  0  0  0
  -14.3863  -19.1977   34.8241 N   0  0  0  0  0  0  0  0  0  0  0  0
  -13.3792  -20.1207   34.5648 C   0  0  0  0  0  0  0  0  0  0  0  0
  -13.6440  -21.1917   33.7960 C   0  0  0  0  0  0  0  0  0  0  0  0
  -15.0230  -21.2305   33.2298 C   0  0  0  0  0  0  0  0  0  0  0  0
  -15.9483  -20.3364   33.4001 N   0  0  0  0  0  0  0  0  0  0  0  0
  -15.6507  -19.3284   34.2630 C   0  0  0  0  0  0  0  0  0  0  0  0
  -16.4219  -18.3442   34.6615 N   0  0  0  0  0  0  0  0  0  0  0  0
  -16.3113  -12.8585   37.2088 C   0  0  0  0  0  0  0  0  0  0  0  0
  -16.5689  -12.2320   35.9876 C   0  0  0  0  0  0  0  0  0  0  0  0
  -16.3887  -10.8254   35.8530 C   0  0  0  0  0  0  0  0  0  0  0  0
  -15.9430  -10.0222   36.9250 C   0  0  0  0  0  0  0  0  0  0  0  0
  -15.8622   -8.5397   36.8637 C   0  0  0  0  0  0  0  0  0  0  0  0
  -16.5189   -7.6474   35.9655 C   0  0  0  0  0  0  0  0  0  0  0  0
  -16.2267   -6.3760   36.4034 C   0  0  0  0  0  0  0  0  0  0  0  0
  -15.4232   -6.5422   37.4850 N   0  0  0  0  0  0  0  0  0  0  0  0
  -15.1636   -7.8267   37.7699 N   0  0  0  0  0  0  0  0  0  0  0  0
  -15.6405  -10.6763   38.1245 C   0  0  0  0  0  0  0  0  0  0  0  0
  -15.8336  -12.0593   38.2667 C   0  0  0  0  0  0  0  0  0  0  0  0
  -16.0028  -14.8355   35.7018 H   0  0  0  0  0  0  0  0  0  0  0  0
  -16.3452  -17.0835   37.5716 H   0  0  0  0  0  0  0  0  0  0  0  0
  -17.5736  -16.8728   36.3475 H   0  0  0  0  0  0  0  0  0  0  0  0
  -13.5732  -17.8352   36.2765 H   0  0  0  0  0  0  0  0  0  0  0  0
  -12.4305  -19.9564   35.0526 H   0  0  0  0  0  0  0  0  0  0  0  0
  -12.9487  -21.9925   33.5933 H   0  0  0  0  0  0  0  0  0  0  0  0
  -15.2657  -22.0796   32.5828 H   0  0  0  0  0  0  0  0  0  0  0  0
  -16.9686  -12.7960   35.1496 H   0  0  0  0  0  0  0  0  0  0  0  0
  -16.6277  -10.3660   34.8957 H   0  0  0  0  0  0  0  0  0  0  0  0
  -17.1557   -7.9056   35.1321 H   0  0  0  0  0  0  0  0  0  0  0  0
  -16.5153   -5.3981   36.0497 H   0  0  0  0  0  0  0  0  0  0  0  0
  -15.0176   -5.8296   38.0814 H   0  0  0  0  0  0  0  0  0  0  0  0
  -15.2878  -10.1086   38.9849 H   0  0  0  0  0  0  0  0  0  0  0  0
  -15.6295  -12.5082   39.2395 H   0  0  0  0  0  0  0  0  0  0  0  0
  1  2  2  0
  2  3  1  0
  3  4  1  0
  4  5  1  0
  5  6  2  0
  6  7  1  0
  7  8  1  0
  8  9  2  0
  9 10  1  0
 10 11  2  0
 11 12  1  0
 12 13  2  0
  2 14  1  0
 14 15  2  0
 15 16  1  0
 16 17  2  0
 17 18  1  0
 18 19  1  0
 19 20  2  0
 20 21  1  0
 21 22  1  0
 17 23  1  0
 23 24  2  0
 13  5  1  0
 24 14  1  0
 12  7  1  0
 22 18  2  0
  3 25  1  0
  4 26  1  0
  4 27  1  0
  6 28  1  0
  8 29  1  0
  9 30  1  0
 10 31  1  0
 15 32  1  0
 16 33  1  0
 19 34  1  0
 20 35  1  0
 21 36  1  0
 23 37  1  0
 24 38  1  0
M  END
>  <Energy>  (872) 
71.655123453612347

>  <compound_id>  (872) 
45284

>  <target_id>  (872) 
1

>  <reference_id>  (872) 
7

>  <inspiration_ids>  (872) 
[107, 7]

>  <energy_score>  (872) 
-8.804698122278438

>  <distance_score>  (872) 
7.248256524033251

>  <path>  (872) 
/opt/xchem-fragalysis-2/maxwin/BulkDock/SCRATCH/511022/C45284-P7/C45284-P7.minimised.mol

>  <scratch_subdir>  (872) 
/opt/xchem-fragalysis-2/maxwin/BulkDock/SCRATCH/511022/C45284-P7

>  <fragmenstein_runtime>  (872) 
8.979675769805908

>  <fragmenstein_outcome>  (872) 
too moved

>  <fragmenstein_mode>  (872) 
expansion

>  <fragmenstein_error>  (872) 


$$$$
C45299-P107
     RDKit          3D

 39 41  0  0  0  0  0  0  0  0999 V2000
  -14.1381  -12.8505   39.7749 O   0  0  0  0  0  0  0  0  0  0  0  0
  -14.6927  -12.1684   38.9609 C   0  0  0  0  0  0  0  0  0  0  0  0
  -15.6085  -12.5166   37.9194 N   0  0  0  0  0  0  0  0  0  0  0  0
  -16.2301  -13.7877   37.5791 C   0  0  0  0  0  0  0  0  0  0  0  0
  -15.3052  -14.9270   37.0644 C   0  0  0  0  0  0  0  0  0  0  0  0
  -14.6773  -14.5227   35.8483 O   0  0  0  0  0  0  0  0  0  0  0  0
  -16.1706  -16.1928   36.8661 C   0  0  0  0  0  0  0  0  0  0  0  0
  -15.6922  -17.3238   36.0925 N   0  0  0  0  0  0  0  0  0  0  0  0
  -16.3829  -18.4694   35.5806 C   0  0  0  0  0  0  0  0  0  0  0  0
  -17.5145  -18.8275   35.7258 O   0  0  0  0  0  0  0  0  0  0  0  0
  -15.5085  -19.3780   34.7919 C   0  0  0  0  0  0  0  0  0  0  0  0
  -15.9539  -20.5139   34.1338 C   0  0  0  0  0  0  0  0  0  0  0  0
  -14.8419  -21.1523   33.6721 N   0  0  0  0  0  0  0  0  0  0  0  0
  -14.7278  -22.3378   32.9708 C   0  0  0  0  0  0  0  0  0  0  0  0
  -13.5170  -22.7880   32.6208 C   0  0  0  0  0  0  0  0  0  0  0  0
  -12.3924  -21.9231   33.0469 C   0  0  0  0  0  0  0  0  0  0  0  0
  -12.4814  -20.8046   33.7022 N   0  0  0  0  0  0  0  0  0  0  0  0
  -13.7412  -20.3890   34.0408 C   0  0  0  0  0  0  0  0  0  0  0  0
  -14.1327  -19.2783   34.6546 N   0  0  0  0  0  0  0  0  0  0  0  0
  -14.5280  -10.6706   39.0369 C   0  0  0  0  0  0  0  0  0  0  0  0
  -13.5704   -9.9499   39.8125 C   0  0  0  0  0  0  0  0  0  0  0  0
  -13.9126   -8.6241   39.7057 C   0  0  0  0  0  0  0  0  0  0  0  0
  -15.0137   -8.5969   38.9084 N   0  0  0  0  0  0  0  0  0  0  0  0
  -15.3557   -9.8000   38.4067 N   0  0  0  0  0  0  0  0  0  0  0  0
  -15.9420  -11.6637   37.4735 H   0  0  0  0  0  0  0  0  0  0  0  0
  -16.9790  -13.5504   36.8148 H   0  0  0  0  0  0  0  0  0  0  0  0
  -16.7510  -14.1250   38.4822 H   0  0  0  0  0  0  0  0  0  0  0  0
  -14.5188  -15.1467   37.7896 H   0  0  0  0  0  0  0  0  0  0  0  0
  -14.2096  -13.6874   36.0611 H   0  0  0  0  0  0  0  0  0  0  0  0
  -17.1182  -15.9161   36.4036 H   0  0  0  0  0  0  0  0  0  0  0  0
  -16.4421  -16.5926   37.8512 H   0  0  0  0  0  0  0  0  0  0  0  0
  -14.7089  -17.3847   35.8299 H   0  0  0  0  0  0  0  0  0  0  0  0
  -16.9471  -20.9253   34.0192 H   0  0  0  0  0  0  0  0  0  0  0  0
  -15.6449  -22.8638   32.7411 H   0  0  0  0  0  0  0  0  0  0  0  0
  -13.3308  -23.7091   32.0900 H   0  0  0  0  0  0  0  0  0  0  0  0
  -11.3965  -22.2907   32.7521 H   0  0  0  0  0  0  0  0  0  0  0  0
  -12.7737  -10.3769   40.4069 H   0  0  0  0  0  0  0  0  0  0  0  0
  -13.4965   -7.7286   40.1457 H   0  0  0  0  0  0  0  0  0  0  0  0
  -15.5746   -7.7920   38.6498 H   0  0  0  0  0  0  0  0  0  0  0  0
  1  2  2  0
  2  3  1  0
  3  4  1  0
  4  5  1  0
  5  6  1  0
  5  7  1  0
  7  8  1  0
  8  9  1  0
  9 10  2  0
  9 11  1  0
 11 12  2  0
 12 13  1  0
 13 14  1  0
 14 15  2  0
 15 16  1  0
 16 17  2  0
 17 18  1  0
 18 19  2  0
  2 20  1  0
 20 21  1  0
 21 22  2  0
 22 23  1  0
 23 24  1  0
 19 11  1  0
 24 20  2  0
 18 13  1  0
  3 25  1  0
  4 26  1  0
  4 27  1  0
  5 28  1  0
  6 29  1  0
  7 30  1  0
  7 31  1  0
  8 32  1  0
 12 33  1  0
 14 34  1  0
 15 35  1  0
 16 36  1  0
 21 37  1  0
 22 38  1  0
 23 39  1  0
M  END
>  <Energy>  (873) 
88.344408940912828

>  <compound_id>  (873) 
45299

>  <target_id>  (873) 
1

>  <reference_id>  (873) 
107

>  <inspiration_ids>  (873) 
[107, 7]

>  <energy_score>  (873) 
-21.983617398893813

>  <distance_score>  (873) 
7.179865009827611

>  <path>  (873) 
/opt/xchem-fragalysis-2/maxwin/BulkDock/SCRATCH/511022/C45299-P107/C45299-P107.minimised.mol

>  <scratch_subdir>  (873) 
/opt/xchem-fragalysis-2/maxwin/BulkDock/SCRATCH/511022/C45299-P107

>  <fragmenstein_runtime>  (873) 
18.290499925613403

>  <fragmenstein_outcome>  (873) 
too moved

>  <fragmenstein_mode>  (873) 
expansion

>  <fragmenstein_error>  (873) 


$$$$
C45299-P7
     RDKit          3D

 39 41  0  0  0  0  0  0  0  0999 V2000
  -14.5448  -10.0999   37.8993 O   0  0  0  0  0  0  0  0  0  0  0  0
  -15.1399   -9.4868   37.0651 C   0  0  0  0  0  0  0  0  0  0  0  0
  -15.5491   -9.8588   35.7508 N   0  0  0  0  0  0  0  0  0  0  0  0
  -15.2905  -11.0571   34.9771 C   0  0  0  0  0  0  0  0  0  0  0  0
  -15.6800  -12.4495   35.5546 C   0  0  0  0  0  0  0  0  0  0  0  0
  -17.1051  -12.5741   35.5809 O   0  0  0  0  0  0  0  0  0  0  0  0
  -15.0881  -13.4974   34.5759 C   0  0  0  0  0  0  0  0  0  0  0  0
  -14.9940  -14.9227   34.8780 N   0  0  0  0  0  0  0  0  0  0  0  0
  -15.7761  -15.7552   35.7428 C   0  0  0  0  0  0  0  0  0  0  0  0
  -16.6567  -15.4809   36.5012 O   0  0  0  0  0  0  0  0  0  0  0  0
  -15.4014  -17.1903   35.4978 C   0  0  0  0  0  0  0  0  0  0  0  0
  -16.2767  -18.2624   35.4136 C   0  0  0  0  0  0  0  0  0  0  0  0
  -15.5584  -19.3039   34.8828 N   0  0  0  0  0  0  0  0  0  0  0  0
  -15.9804  -20.5303   34.3793 C   0  0  0  0  0  0  0  0  0  0  0  0
  -15.0754  -21.3913   33.8919 C   0  0  0  0  0  0  0  0  0  0  0  0
  -13.6575  -20.9528   34.0288 C   0  0  0  0  0  0  0  0  0  0  0  0
  -13.2531  -19.8041   34.4927 N   0  0  0  0  0  0  0  0  0  0  0  0
  -14.2234  -18.9106   34.8561 C   0  0  0  0  0  0  0  0  0  0  0  0
  -14.1403  -17.6067   35.0782 N   0  0  0  0  0  0  0  0  0  0  0  0
  -15.4705   -8.0441   37.3150 C   0  0  0  0  0  0  0  0  0  0  0  0
  -15.1008   -7.2596   38.4469 C   0  0  0  0  0  0  0  0  0  0  0  0
  -15.4637   -5.9686   38.1460 C   0  0  0  0  0  0  0  0  0  0  0  0
  -16.0356   -6.0265   36.9130 N   0  0  0  0  0  0  0  0  0  0  0  0
  -16.0854   -7.2680   36.3916 N   0  0  0  0  0  0  0  0  0  0  0  0
  -15.9645   -9.0496   35.2925 H   0  0  0  0  0  0  0  0  0  0  0  0
  -14.2090  -11.0371   34.7967 H   0  0  0  0  0  0  0  0  0  0  0  0
  -15.7895  -10.9047   34.0152 H   0  0  0  0  0  0  0  0  0  0  0  0
  -15.3101  -12.5559   36.5736 H   0  0  0  0  0  0  0  0  0  0  0  0
  -17.3053  -13.4736   35.9206 H   0  0  0  0  0  0  0  0  0  0  0  0
  -15.6772  -13.4475   33.6560 H   0  0  0  0  0  0  0  0  0  0  0  0
  -14.0653  -13.2150   34.3226 H   0  0  0  0  0  0  0  0  0  0  0  0
  -14.3851  -15.5142   34.3080 H   0  0  0  0  0  0  0  0  0  0  0  0
  -17.3433  -18.3205   35.5833 H   0  0  0  0  0  0  0  0  0  0  0  0
  -17.0420  -20.7409   34.3992 H   0  0  0  0  0  0  0  0  0  0  0  0
  -15.3005  -22.3709   33.4946 H   0  0  0  0  0  0  0  0  0  0  0  0
  -12.9051  -21.6974   33.7191 H   0  0  0  0  0  0  0  0  0  0  0  0
  -14.5877   -7.6105   39.3330 H   0  0  0  0  0  0  0  0  0  0  0  0
  -15.3655   -5.0394   38.6885 H   0  0  0  0  0  0  0  0  0  0  0  0
  -16.4173   -5.2610   36.3672 H   0  0  0  0  0  0  0  0  0  0  0  0
  1  2  2  0
  2  3  1  0
  3  4  1  0
  4  5  1  0
  5  6  1  0
  5  7  1  0
  7  8  1  0
  8  9  1  0
  9 10  2  0
  9 11  1  0
 11 12  2  0
 12 13  1  0
 13 14  1  0
 14 15  2  0
 15 16  1  0
 16 17  2  0
 17 18  1  0
 18 19  2  0
  2 20  1  0
 20 21  1  0
 21 22  2  0
 22 23  1  0
 23 24  1  0
 19 11  1  0
 24 20  2  0
 18 13  1  0
  3 25  1  0
  4 26  1  0
  4 27  1  0
  5 28  1  0
  6 29  1  0
  7 30  1  0
  7 31  1  0
  8 32  1  0
 12 33  1  0
 14 34  1  0
 15 35  1  0
 16 36  1  0
 21 37  1  0
 22 38  1  0
 23 39  1  0
M  END
>  <Energy>  (874) 
91.955968077127196

>  <compound_id>  (874) 
45299

>  <target_id>  (874) 
1

>  <reference_id>  (874) 
7

>  <inspiration_ids>  (874) 
[107, 7]

>  <energy_score>  (874) 
-18.372058262678337

>  <distance_score>  (874) 
7.238760341442278

>  <path>  (874) 
/opt/xchem-fragalysis-2/maxwin/BulkDock/SCRATCH/511022/C45299-P7/C45299-P7.minimised.mol

>  <scratch_subdir>  (874) 
/opt/xchem-fragalysis-2/maxwin/BulkDock/SCRATCH/511022/C45299-P7

>  <fragmenstein_runtime>  (874) 
11.387493371963501

>  <fragmenstein_outcome>  (874) 
too moved

>  <fragmenstein_mode>  (874) 
expansion

>  <fragmenstein_error>  (874) 


$$$$
C45300-P107
     RDKit          3D

 41 43  0  0  0  0  0  0  0  0999 V2000
  -14.7353  -13.7642   35.0852 C   0  0  0  0  0  0  0  0  0  0  0  0
  -15.5396  -13.3766   36.3295 C   0  0  0  0  0  0  0  0  0  0  0  0
  -16.2563  -14.5744   36.9906 N   0  0  0  0  0  0  0  0  0  0  0  0
  -16.9812  -13.4446   37.7296 C   0  0  0  0  0  0  0  0  0  0  0  0
  -16.3003  -12.7226   38.9374 C   0  0  0  0  0  0  0  0  0  0  0  0
  -16.0994  -11.2829   38.8067 N   0  0  0  0  0  0  0  0  0  0  0  0
  -15.0386  -10.4291   39.2861 C   0  0  0  0  0  0  0  0  0  0  0  0
  -14.0159  -10.6969   39.8430 O   0  0  0  0  0  0  0  0  0  0  0  0
  -15.3277   -8.9497   39.0756 C   0  0  0  0  0  0  0  0  0  0  0  0
  -16.2896   -8.2857   38.2523 C   0  0  0  0  0  0  0  0  0  0  0  0
  -16.1045   -6.9342   38.4492 C   0  0  0  0  0  0  0  0  0  0  0  0
  -15.1081   -6.8316   39.3688 N   0  0  0  0  0  0  0  0  0  0  0  0
  -14.5974   -8.0144   39.7229 N   0  0  0  0  0  0  0  0  0  0  0  0
  -15.2964  -15.5330   37.4577 C   0  0  0  0  0  0  0  0  0  0  0  0
  -14.7498  -15.6359   38.5263 O   0  0  0  0  0  0  0  0  0  0  0  0
  -15.0221  -16.6347   36.4621 C   0  0  0  0  0  0  0  0  0  0  0  0
  -16.0686  -17.3970   35.7135 C   0  0  0  0  0  0  0  0  0  0  0  0
  -15.9004  -18.4350   34.9453 N   0  0  0  0  0  0  0  0  0  0  0  0
  -14.6273  -18.8988   34.8397 C   0  0  0  0  0  0  0  0  0  0  0  0
  -14.1750  -19.9344   34.1676 N   0  0  0  0  0  0  0  0  0  0  0  0
  -12.8247  -19.9795   34.4143 C   0  0  0  0  0  0  0  0  0  0  0  0
  -12.4425  -18.9306   35.2108 C   0  0  0  0  0  0  0  0  0  0  0  0
  -13.5909  -18.2589   35.5031 N   0  0  0  0  0  0  0  0  0  0  0  0
  -13.7886  -17.1562   36.3179 C   0  0  0  0  0  0  0  0  0  0  0  0
  -13.9310  -14.4681   35.2990 H   0  0  0  0  0  0  0  0  0  0  0  0
  -14.2777  -12.8686   34.6514 H   0  0  0  0  0  0  0  0  0  0  0  0
  -15.3920  -14.1905   34.3303 H   0  0  0  0  0  0  0  0  0  0  0  0
  -14.8265  -12.9231   37.0202 H   0  0  0  0  0  0  0  0  0  0  0  0
  -16.2200  -12.6173   35.9113 H   0  0  0  0  0  0  0  0  0  0  0  0
  -17.6295  -12.8059   37.1075 H   0  0  0  0  0  0  0  0  0  0  0  0
  -17.7435  -14.0596   38.2369 H   0  0  0  0  0  0  0  0  0  0  0  0
  -16.9486  -12.8302   39.8154 H   0  0  0  0  0  0  0  0  0  0  0  0
  -15.3407  -13.1756   39.2042 H   0  0  0  0  0  0  0  0  0  0  0  0
  -16.8523  -10.7085   38.4596 H   0  0  0  0  0  0  0  0  0  0  0  0
  -17.0193   -8.7286   37.5909 H   0  0  0  0  0  0  0  0  0  0  0  0
  -16.5996   -6.0616   38.0467 H   0  0  0  0  0  0  0  0  0  0  0  0
  -14.7075   -5.9953   39.7848 H   0  0  0  0  0  0  0  0  0  0  0  0
  -17.0970  -17.0407   35.8642 H   0  0  0  0  0  0  0  0  0  0  0  0
  -12.2072  -20.7574   33.9853 H   0  0  0  0  0  0  0  0  0  0  0  0
  -11.4873  -18.6077   35.5865 H   0  0  0  0  0  0  0  0  0  0  0  0
  -12.9222  -16.7688   36.8364 H   0  0  0  0  0  0  0  0  0  0  0  0
  1  2  1  0
  2  3  1  0
  3  4  1  0
  4  5  1  0
  5  6  1  0
  6  7  1  0
  7  8  2  0
  7  9  1  0
  9 10  1  0
 10 11  2  0
 11 12  1  0
 12 13  1  0
  3 14  1  0
 14 15  2  0
 14 16  1  0
 16 17  1  0
 17 18  2  0
 18 19  1  0
 19 20  2  0
 20 21  1  0
 21 22  2  0
 22 23  1  0
 23 24  1  0
 13  9  2  0
 24 16  2  0
 23 19  1  0
  1 25  1  0
  1 26  1  0
  1 27  1  0
  2 28  1  0
  2 29  1  0
  4 30  1  0
  4 31  1  0
  5 32  1  0
  5 33  1  0
  6 34  1  0
 10 35  1  0
 11 36  1  0
 12 37  1  0
 17 38  1  0
 21 39  1  0
 22 40  1  0
 24 41  1  0
M  END
>  <Energy>  (875) 
140.12982669778643

>  <compound_id>  (875) 
45300

>  <target_id>  (875) 
1

>  <reference_id>  (875) 
107

>  <inspiration_ids>  (875) 
[107, 7]

>  <energy_score>  (875) 
68.46278662507788

>  <distance_score>  (875) 
8.698417054780618

>  <path>  (875) 
/opt/xchem-fragalysis-2/maxwin/BulkDock/SCRATCH/511022/C45300-P107/C45300-P107.minimised.mol

>  <scratch_subdir>  (875) 
/opt/xchem-fragalysis-2/maxwin/BulkDock/SCRATCH/511022/C45300-P107

>  <fragmenstein_runtime>  (875) 
24.514129161834717

>  <fragmenstein_outcome>  (875) 
too moved

>  <fragmenstein_mode>  (875) 
expansion

>  <fragmenstein_error>  (875) 


$$$$
C45300-P7
     RDKit          3D

 41 43  0  0  0  0  0  0  0  0999 V2000
  -13.8616  -17.4166   36.3439 C   0  0  0  0  0  0  0  0  0  0  0  0
  -15.1596  -16.8457   35.7543 C   0  0  0  0  0  0  0  0  0  0  0  0
  -16.3822  -17.3597   36.5081 N   0  0  0  0  0  0  0  0  0  0  0  0
  -16.2740  -15.9712   37.1821 C   0  0  0  0  0  0  0  0  0  0  0  0
  -17.0385  -14.7725   36.5008 C   0  0  0  0  0  0  0  0  0  0  0  0
  -16.4466  -13.4337   36.6260 N   0  0  0  0  0  0  0  0  0  0  0  0
  -15.5308  -12.7186   35.7655 C   0  0  0  0  0  0  0  0  0  0  0  0
  -14.9612  -13.0677   34.7743 O   0  0  0  0  0  0  0  0  0  0  0  0
  -15.3073  -11.2884   36.2202 C   0  0  0  0  0  0  0  0  0  0  0  0
  -15.1039  -10.7715   37.5368 C   0  0  0  0  0  0  0  0  0  0  0  0
  -14.8547   -9.4246   37.3869 C   0  0  0  0  0  0  0  0  0  0  0  0
  -14.9178   -9.1876   36.0499 N   0  0  0  0  0  0  0  0  0  0  0  0
  -15.2225  -10.2760   35.3291 N   0  0  0  0  0  0  0  0  0  0  0  0
  -17.3444  -17.8764   35.5909 C   0  0  0  0  0  0  0  0  0  0  0  0
  -18.2651  -17.3368   35.0385 O   0  0  0  0  0  0  0  0  0  0  0  0
  -17.0577  -19.2994   35.2150 C   0  0  0  0  0  0  0  0  0  0  0  0
  -17.1930  -20.4759   36.1114 C   0  0  0  0  0  0  0  0  0  0  0  0
  -17.1159  -21.7305   35.7728 N   0  0  0  0  0  0  0  0  0  0  0  0
  -16.8882  -21.9939   34.4519 C   0  0  0  0  0  0  0  0  0  0  0  0
  -16.9033  -23.1415   33.8067 N   0  0  0  0  0  0  0  0  0  0  0  0
  -16.6566  -22.8340   32.4937 C   0  0  0  0  0  0  0  0  0  0  0  0
  -16.4912  -21.4830   32.3210 C   0  0  0  0  0  0  0  0  0  0  0  0
  -16.6875  -20.9512   33.5604 N   0  0  0  0  0  0  0  0  0  0  0  0
  -16.7893  -19.6256   33.9377 C   0  0  0  0  0  0  0  0  0  0  0  0
  -13.0078  -17.1271   35.7229 H   0  0  0  0  0  0  0  0  0  0  0  0
  -13.6744  -17.0767   37.3659 H   0  0  0  0  0  0  0  0  0  0  0  0
  -13.9006  -18.5101   36.3645 H   0  0  0  0  0  0  0  0  0  0  0  0
  -15.0831  -15.7904   35.4570 H   0  0  0  0  0  0  0  0  0  0  0  0
  -15.2068  -17.3232   34.7688 H   0  0  0  0  0  0  0  0  0  0  0  0
  -15.3039  -15.7109   37.6250 H   0  0  0  0  0  0  0  0  0  0  0  0
  -16.8674  -16.1545   38.0924 H   0  0  0  0  0  0  0  0  0  0  0  0
  -17.1415  -14.9487   35.4274 H   0  0  0  0  0  0  0  0  0  0  0  0
  -18.0508  -14.7072   36.9150 H   0  0  0  0  0  0  0  0  0  0  0  0
  -16.8022  -12.7977   37.3318 H   0  0  0  0  0  0  0  0  0  0  0  0
  -15.0815  -11.3231   38.4662 H   0  0  0  0  0  0  0  0  0  0  0  0
  -14.6164   -8.6454   38.0969 H   0  0  0  0  0  0  0  0  0  0  0  0
  -14.7555   -8.3151   35.5518 H   0  0  0  0  0  0  0  0  0  0  0  0
  -17.3898  -20.2356   37.1698 H   0  0  0  0  0  0  0  0  0  0  0  0
  -16.5966  -23.6002   31.7320 H   0  0  0  0  0  0  0  0  0  0  0  0
  -16.2882  -20.8934   31.4434 H   0  0  0  0  0  0  0  0  0  0  0  0
  -16.7249  -18.9077   33.1422 H   0  0  0  0  0  0  0  0  0  0  0  0
  1  2  1  0
  2  3  1  0
  3  4  1  0
  4  5  1  0
  5  6  1  0
  6  7  1  0
  7  8  2  0
  7  9  1  0
  9 10  1  0
 10 11  2  0
 11 12  1  0
 12 13  1  0
  3 14  1  0
 14 15  2  0
 14 16  1  0
 16 17  1  0
 17 18  2  0
 18 19  1  0
 19 20  2  0
 20 21  1  0
 21 22  2  0
 22 23  1  0
 23 24  1  0
 13  9  2  0
 24 16  2  0
 23 19  1  0
  1 25  1  0
  1 26  1  0
  1 27  1  0
  2 28  1  0
  2 29  1  0
  4 30  1  0
  4 31  1  0
  5 32  1  0
  5 33  1  0
  6 34  1  0
 10 35  1  0
 11 36  1  0
 12 37  1  0
 17 38  1  0
 21 39  1  0
 22 40  1  0
 24 41  1  0
M  END
>  <Energy>  (876) 
140.56538377245982

>  <compound_id>  (876) 
45300

>  <target_id>  (876) 
1

>  <reference_id>  (876) 
7

>  <inspiration_ids>  (876) 
[107, 7]

>  <energy_score>  (876) 
68.89834369974434

>  <distance_score>  (876) 
9.073204869670697

>  <path>  (876) 
/opt/xchem-fragalysis-2/maxwin/BulkDock/SCRATCH/511022/C45300-P7/C45300-P7.minimised.mol

>  <scratch_subdir>  (876) 
/opt/xchem-fragalysis-2/maxwin/BulkDock/SCRATCH/511022/C45300-P7

>  <fragmenstein_runtime>  (876) 
17.581393718719482

>  <fragmenstein_outcome>  (876) 
too moved

>  <fragmenstein_mode>  (876) 
expansion

>  <fragmenstein_error>  (876) 


$$$$
C45301-P107
     RDKit          3D

 42 45  0  0  0  0  0  0  0  0999 V2000
  -13.1043  -17.0426   36.5979 O   0  0  0  0  0  0  0  0  0  0  0  0
  -14.1927  -17.0461   36.0978 C   0  0  0  0  0  0  0  0  0  0  0  0
  -15.1808  -16.0045   35.9914 N   0  0  0  0  0  0  0  0  0  0  0  0
  -15.1304  -14.5923   36.3705 C   0  0  0  0  0  0  0  0  0  0  0  0
  -16.1211  -14.1497   37.4765 C   0  0  0  0  0  0  0  0  0  0  0  0
  -15.8758  -12.7940   37.9703 N   0  0  0  0  0  0  0  0  0  0  0  0
  -14.9659  -12.3055   38.9627 C   0  0  0  0  0  0  0  0  0  0  0  0
  -14.2267  -12.8910   39.7013 O   0  0  0  0  0  0  0  0  0  0  0  0
  -14.9603  -10.7954   38.9792 C   0  0  0  0  0  0  0  0  0  0  0  0
  -14.0669   -9.9509   39.7083 C   0  0  0  0  0  0  0  0  0  0  0  0
  -14.4774   -8.6621   39.4707 C   0  0  0  0  0  0  0  0  0  0  0  0
  -15.5467   -8.7701   38.6386 N   0  0  0  0  0  0  0  0  0  0  0  0
  -15.8308  -10.0359   38.2694 N   0  0  0  0  0  0  0  0  0  0  0  0
  -15.1767  -13.8203   35.0644 C   0  0  0  0  0  0  0  0  0  0  0  0
  -14.9475  -12.3351   34.9802 C   0  0  0  0  0  0  0  0  0  0  0  0
  -16.3011  -12.8923   34.6585 C   0  0  0  0  0  0  0  0  0  0  0  0
  -14.5764  -18.3160   35.3604 C   0  0  0  0  0  0  0  0  0  0  0  0
  -15.9476  -18.7429   34.9542 C   0  0  0  0  0  0  0  0  0  0  0  0
  -16.2717  -19.7177   34.1600 N   0  0  0  0  0  0  0  0  0  0  0  0
  -15.2507  -20.5046   33.7231 C   0  0  0  0  0  0  0  0  0  0  0  0
  -15.2874  -21.5185   32.8915 N   0  0  0  0  0  0  0  0  0  0  0  0
  -14.0201  -22.0370   32.8596 C   0  0  0  0  0  0  0  0  0  0  0  0
  -13.1643  -21.2583   33.6003 C   0  0  0  0  0  0  0  0  0  0  0  0
  -13.9472  -20.2685   34.1435 N   0  0  0  0  0  0  0  0  0  0  0  0
  -13.6130  -19.1600   34.9215 C   0  0  0  0  0  0  0  0  0  0  0  0
  -15.9500  -16.3364   35.4320 H   0  0  0  0  0  0  0  0  0  0  0  0
  -14.1346  -14.4756   36.7750 H   0  0  0  0  0  0  0  0  0  0  0  0
  -17.1567  -14.1977   37.1266 H   0  0  0  0  0  0  0  0  0  0  0  0
  -16.0225  -14.8253   38.3336 H   0  0  0  0  0  0  0  0  0  0  0  0
  -16.2806  -12.0027   37.4751 H   0  0  0  0  0  0  0  0  0  0  0  0
  -13.2519  -10.2760   40.3415 H   0  0  0  0  0  0  0  0  0  0  0  0
  -14.1206   -7.7085   39.8339 H   0  0  0  0  0  0  0  0  0  0  0  0
  -16.1344   -8.0246   38.2808 H   0  0  0  0  0  0  0  0  0  0  0  0
  -14.6493  -14.3628   34.2833 H   0  0  0  0  0  0  0  0  0  0  0  0
  -14.7851  -11.7695   35.8854 H   0  0  0  0  0  0  0  0  0  0  0  0
  -14.3528  -11.9789   34.1479 H   0  0  0  0  0  0  0  0  0  0  0  0
  -16.5919  -12.8681   33.6146 H   0  0  0  0  0  0  0  0  0  0  0  0
  -17.1144  -12.6896   35.3412 H   0  0  0  0  0  0  0  0  0  0  0  0
  -16.7766  -18.1506   35.3738 H   0  0  0  0  0  0  0  0  0  0  0  0
  -13.7987  -22.9345   32.2938 H   0  0  0  0  0  0  0  0  0  0  0  0
  -12.1074  -21.3298   33.7970 H   0  0  0  0  0  0  0  0  0  0  0  0
  -12.5559  -19.0091   35.1184 H   0  0  0  0  0  0  0  0  0  0  0  0
  1  2  2  0
  2  3  1  0
  3  4  1  0
  4  5  1  0
  5  6  1  0
  6  7  1  0
  7  8  2  0
  7  9  1  0
  9 10  1  0
 10 11  2  0
 11 12  1  0
 12 13  1  0
  4 14  1  0
 14 15  1  0
 15 16  1  0
  2 17  1  0
 17 18  1  0
 18 19  2  0
 19 20  1  0
 20 21  2  0
 21 22  1  0
 22 23  2  0
 23 24  1  0
 24 25  1  0
 13  9  2  0
 16 14  1  0
 25 17  2  0
 24 20  1  0
  3 26  1  0
  4 27  1  0
  5 28  1  0
  5 29  1  0
  6 30  1  0
 10 31  1  0
 11 32  1  0
 12 33  1  0
 14 34  1  0
 15 35  1  0
 15 36  1  0
 16 37  1  0
 16 38  1  0
 18 39  1  0
 22 40  1  0
 23 41  1  0
 25 42  1  0
M  END
>  <Energy>  (877) 
71.289943424214314

>  <compound_id>  (877) 
45301

>  <target_id>  (877) 
1

>  <reference_id>  (877) 
107

>  <inspiration_ids>  (877) 
[107, 7]

>  <energy_score>  (877) 
-24.354320519747603

>  <distance_score>  (877) 
8.266081131147972

>  <path>  (877) 
/opt/xchem-fragalysis-2/maxwin/BulkDock/SCRATCH/511022/C45301-P107/C45301-P107.minimised.mol

>  <scratch_subdir>  (877) 
/opt/xchem-fragalysis-2/maxwin/BulkDock/SCRATCH/511022/C45301-P107

>  <fragmenstein_runtime>  (877) 
20.51751947402954

>  <fragmenstein_outcome>  (877) 
too moved

>  <fragmenstein_mode>  (877) 
expansion

>  <fragmenstein_error>  (877) 


$$$$
C45301-P7
     RDKit          3D

 42 45  0  0  0  0  0  0  0  0999 V2000
  -11.4833  -15.6524   31.1533 O   0  0  0  0  0  0  0  0  0  0  0  0
  -12.4372  -15.7630   30.5059 C   0  0  0  0  0  0  0  0  0  0  0  0
  -13.5513  -14.6268   30.4045 N   0  0  0  0  0  0  0  0  0  0  0  0
  -13.7869  -12.8578   31.3457 C   0  0  0  0  0  0  0  0  0  0  0  0
  -14.1512  -11.6985   33.1421 C   0  0  0  0  0  0  0  0  0  0  0  0
  -12.8771  -10.2938   33.7583 N   0  0  0  0  0  0  0  0  0  0  0  0
  -12.9964   -8.9911   35.0839 C   0  0  0  0  0  0  0  0  0  0  0  0
  -13.9441   -8.9172   35.8575 O   0  0  0  0  0  0  0  0  0  0  0  0
  -11.6427   -7.4422   35.2614 C   0  0  0  0  0  0  0  0  0  0  0  0
  -10.8781   -5.8712   35.9798 C   0  0  0  0  0  0  0  0  0  0  0  0
  -11.4873   -4.7020   36.3780 C   0  0  0  0  0  0  0  0  0  0  0  0
  -11.4805   -4.9194   35.0860 N   0  0  0  0  0  0  0  0  0  0  0  0
  -10.9942   -6.4904   34.4810 N   0  0  0  0  0  0  0  0  0  0  0  0
  -13.3069  -11.9556   29.7127 C   0  0  0  0  0  0  0  0  0  0  0  0
  -12.7210  -10.6418   28.6672 C   0  0  0  0  0  0  0  0  0  0  0  0
  -13.9886  -10.5655   29.2847 C   0  0  0  0  0  0  0  0  0  0  0  0
  -12.3537  -17.5073   29.4334 C   0  0  0  0  0  0  0  0  0  0  0  0
  -11.2896  -18.3257   29.0548 C   0  0  0  0  0  0  0  0  0  0  0  0
  -10.7571  -19.8014   29.5013 N   0  0  0  0  0  0  0  0  0  0  0  0
  -11.4292  -20.9323   29.8631 C   0  0  0  0  0  0  0  0  0  0  0  0
  -11.2400  -22.1776   30.1626 N   0  0  0  0  0  0  0  0  0  0  0  0
  -11.5617  -22.7366   28.9804 C   0  0  0  0  0  0  0  0  0  0  0  0
  -12.1238  -21.7577   28.1844 C   0  0  0  0  0  0  0  0  0  0  0  0
  -12.4314  -20.6847   29.0688 N   0  0  0  0  0  0  0  0  0  0  0  0
  -12.9069  -19.0574   29.1615 C   0  0  0  0  0  0  0  0  0  0  0  0
  -14.3107  -14.9816   29.8677 H   0  0  0  0  0  0  0  0  0  0  0  0
  -13.1958  -13.6429   31.9316 H   0  0  0  0  0  0  0  0  0  0  0  0
  -15.1153  -11.1833   33.0514 H   0  0  0  0  0  0  0  0  0  0  0  0
  -14.1866  -12.4067   33.9845 H   0  0  0  0  0  0  0  0  0  0  0  0
  -11.9813  -10.2154   33.3012 H   0  0  0  0  0  0  0  0  0  0  0  0
   -9.7806   -5.7045   36.0364 H   0  0  0  0  0  0  0  0  0  0  0  0
  -11.2408   -3.7547   36.8327 H   0  0  0  0  0  0  0  0  0  0  0  0
  -11.4297   -4.0972   34.4837 H   0  0  0  0  0  0  0  0  0  0  0  0
  -12.4281  -11.8375   30.2493 H   0  0  0  0  0  0  0  0  0  0  0  0
  -12.5370  -10.8918   27.6219 H   0  0  0  0  0  0  0  0  0  0  0  0
  -11.8826  -10.0214   28.9927 H   0  0  0  0  0  0  0  0  0  0  0  0
  -15.0654  -10.4588   29.1462 H   0  0  0  0  0  0  0  0  0  0  0  0
  -14.4223   -9.9768   28.3375 H   0  0  0  0  0  0  0  0  0  0  0  0
  -11.0227  -17.8746   28.0932 H   0  0  0  0  0  0  0  0  0  0  0  0
  -11.2978  -23.7519   28.7212 H   0  0  0  0  0  0  0  0  0  0  0  0
  -12.1816  -21.7554   27.1168 H   0  0  0  0  0  0  0  0  0  0  0  0
  -13.9506  -19.2730   29.3694 H   0  0  0  0  0  0  0  0  0  0  0  0
  1  2  2  0
  2  3  1  0
  3  4  1  0
  4  5  1  0
  5  6  1  0
  6  7  1  0
  7  8  2  0
  7  9  1  0
  9 10  1  0
 10 11  2  0
 11 12  1  0
 12 13  1  0
  4 14  1  0
 14 15  1  0
 15 16  1  0
  2 17  1  0
 17 18  1  0
 18 19  2  0
 19 20  1  0
 20 21  2  0
 21 22  1  0
 22 23  2  0
 23 24  1  0
 24 25  1  0
 13  9  2  0
 16 14  1  0
 25 17  2  0
 24 20  1  0
  3 26  1  0
  4 27  1  0
  5 28  1  0
  5 29  1  0
  6 30  1  0
 10 31  1  0
 11 32  1  0
 12 33  1  0
 14 34  1  0
 15 35  1  0
 15 36  1  0
 16 37  1  0
 16 38  1  0
 18 39  1  0
 22 40  1  0
 23 41  1  0
 25 42  1  0
M  END
>  <Energy>  (878) 
1535.6345946507518

>  <compound_id>  (878) 
45301

>  <target_id>  (878) 
1

>  <reference_id>  (878) 
7

>  <inspiration_ids>  (878) 
[107, 7]

>  <energy_score>  (878) 
1439.9903307067889

>  <distance_score>  (878) 
5.41669378080813

>  <path>  (878) 
/opt/xchem-fragalysis-2/maxwin/BulkDock/SCRATCH/511022/C45301-P7/C45301-P7.minimised.mol

>  <scratch_subdir>  (878) 
/opt/xchem-fragalysis-2/maxwin/BulkDock/SCRATCH/511022/C45301-P7

>  <fragmenstein_runtime>  (878) 
18.18766689300537

>  <fragmenstein_outcome>  (878) 
too moved

>  <fragmenstein_mode>  (878) 
expansion

>  <fragmenstein_error>  (878) 


$$$$
C45302-P107
     RDKit          3D

 42 45  0  0  0  0  0  0  0  0999 V2000
  -15.1719  -12.4215   33.9348 O   0  0  0  0  0  0  0  0  0  0  0  0
  -14.7752  -12.8236   34.9864 C   0  0  0  0  0  0  0  0  0  0  0  0
  -14.3875  -12.1183   36.1707 N   0  0  0  0  0  0  0  0  0  0  0  0
  -14.2601  -10.6798   36.4402 C   0  0  0  0  0  0  0  0  0  0  0  0
  -12.6781   -9.9208   36.1230 C   0  0  0  0  0  0  0  0  0  0  0  0
  -12.0875   -8.0127   35.7167 N   0  0  0  0  0  0  0  0  0  0  0  0
  -13.1052   -6.5543   35.3489 C   0  0  0  0  0  0  0  0  0  0  0  0
  -14.2827   -6.4554   35.1674 O   0  0  0  0  0  0  0  0  0  0  0  0
  -12.4454   -5.1073   35.4043 C   0  0  0  0  0  0  0  0  0  0  0  0
  -11.8599   -3.9030   35.0142 C   0  0  0  0  0  0  0  0  0  0  0  0
  -11.4515   -3.1375   36.1101 C   0  0  0  0  0  0  0  0  0  0  0  0
  -12.2824   -3.5911   37.0563 N   0  0  0  0  0  0  0  0  0  0  0  0
  -13.0479   -4.5821   36.5995 N   0  0  0  0  0  0  0  0  0  0  0  0
  -11.1755   -9.1809   34.4807 C   0  0  0  0  0  0  0  0  0  0  0  0
  -10.2666   -9.1894   33.4001 C   0  0  0  0  0  0  0  0  0  0  0  0
  -10.0019   -7.8207   33.4081 C   0  0  0  0  0  0  0  0  0  0  0  0
  -14.5987  -14.3359   35.1583 C   0  0  0  0  0  0  0  0  0  0  0  0
  -13.7645  -15.1870   34.2315 C   0  0  0  0  0  0  0  0  0  0  0  0
  -13.6330  -16.4813   34.2255 N   0  0  0  0  0  0  0  0  0  0  0  0
  -14.3962  -17.1642   35.1096 C   0  0  0  0  0  0  0  0  0  0  0  0
  -14.6266  -18.4585   35.1677 N   0  0  0  0  0  0  0  0  0  0  0  0
  -15.5539  -18.6215   36.1589 C   0  0  0  0  0  0  0  0  0  0  0  0
  -15.8815  -17.4168   36.7324 C   0  0  0  0  0  0  0  0  0  0  0  0
  -15.1874  -16.4760   36.0197 N   0  0  0  0  0  0  0  0  0  0  0  0
  -15.2749  -15.0823   36.0540 C   0  0  0  0  0  0  0  0  0  0  0  0
  -14.0219  -12.7805   36.8451 H   0  0  0  0  0  0  0  0  0  0  0  0
  -14.4261  -10.5782   37.5221 H   0  0  0  0  0  0  0  0  0  0  0  0
  -15.1607  -10.3098   35.9814 H   0  0  0  0  0  0  0  0  0  0  0  0
  -12.6386   -9.8046   37.2388 H   0  0  0  0  0  0  0  0  0  0  0  0
  -11.9135  -10.7091   36.0354 H   0  0  0  0  0  0  0  0  0  0  0  0
  -11.7035   -3.4762   34.0390 H   0  0  0  0  0  0  0  0  0  0  0  0
  -10.8900   -2.2214   36.2030 H   0  0  0  0  0  0  0  0  0  0  0  0
  -12.4473   -3.2426   37.9932 H   0  0  0  0  0  0  0  0  0  0  0  0
  -10.7060   -9.8661   35.1856 H   0  0  0  0  0  0  0  0  0  0  0  0
   -9.8433   -9.8632   32.6746 H   0  0  0  0  0  0  0  0  0  0  0  0
  -11.0973   -9.6190   32.9328 H   0  0  0  0  0  0  0  0  0  0  0  0
  -10.2797   -7.2701   32.5223 H   0  0  0  0  0  0  0  0  0  0  0  0
   -9.1198   -7.3039   33.7595 H   0  0  0  0  0  0  0  0  0  0  0  0
  -13.1879  -14.6333   33.4822 H   0  0  0  0  0  0  0  0  0  0  0  0
  -15.9563  -19.5946   36.4061 H   0  0  0  0  0  0  0  0  0  0  0  0
  -16.5761  -17.1549   37.5169 H   0  0  0  0  0  0  0  0  0  0  0  0
  -15.9687  -14.6522   36.7653 H   0  0  0  0  0  0  0  0  0  0  0  0
  1  2  2  0
  2  3  1  0
  3  4  1  0
  4  5  1  0
  5  6  1  0
  6  7  1  0
  7  8  2  0
  7  9  1  0
  9 10  1  0
 10 11  2  0
 11 12  1  0
 12 13  1  0
  6 14  1  0
 14 15  1  0
 15 16  1  0
  2 17  1  0
 17 18  1  0
 18 19  2  0
 19 20  1  0
 20 21  2  0
 21 22  1  0
 22 23  2  0
 23 24  1  0
 24 25  1  0
 13  9  2  0
 16 14  1  0
 25 17  2  0
 24 20  1  0
  3 26  1  0
  4 27  1  0
  4 28  1  0
  5 29  1  0
  5 30  1  0
 10 31  1  0
 11 32  1  0
 12 33  1  0
 14 34  1  0
 15 35  1  0
 15 36  1  0
 16 37  1  0
 16 38  1  0
 18 39  1  0
 22 40  1  0
 23 41  1  0
 25 42  1  0
M  END
>  <Energy>  (879) 
579.0898167654957

>  <compound_id>  (879) 
45302

>  <target_id>  (879) 
1

>  <reference_id>  (879) 
107

>  <inspiration_ids>  (879) 
[107, 7]

>  <energy_score>  (879) 
461.8662297349412

>  <distance_score>  (879) 
8.304440306158162

>  <path>  (879) 
/opt/xchem-fragalysis-2/maxwin/BulkDock/SCRATCH/511022/C45302-P107/C45302-P107.minimised.mol

>  <scratch_subdir>  (879) 
/opt/xchem-fragalysis-2/maxwin/BulkDock/SCRATCH/511022/C45302-P107

>  <fragmenstein_runtime>  (879) 
16.289997100830078

>  <fragmenstein_outcome>  (879) 
too moved

>  <fragmenstein_mode>  (879) 
expansion

>  <fragmenstein_error>  (879) 


$$$$
C45302-P7
     RDKit          3D

 42 45  0  0  0  0  0  0  0  0999 V2000
  -13.1117  -15.9922   29.5804 O   0  0  0  0  0  0  0  0  0  0  0  0
  -12.3066  -16.5189   30.2293 C   0  0  0  0  0  0  0  0  0  0  0  0
  -12.0565  -15.5694   31.9261 N   0  0  0  0  0  0  0  0  0  0  0  0
  -12.9858  -14.0160   32.7929 C   0  0  0  0  0  0  0  0  0  0  0  0
  -12.8071  -12.0974   33.8646 C   0  0  0  0  0  0  0  0  0  0  0  0
  -11.7547  -10.2826   33.4782 N   0  0  0  0  0  0  0  0  0  0  0  0
  -11.0765   -9.6084   34.2791 C   0  0  0  0  0  0  0  0  0  0  0  0
  -10.7381   -9.8443   35.3588 O   0  0  0  0  0  0  0  0  0  0  0  0
  -10.4268   -7.9780   33.3688 C   0  0  0  0  0  0  0  0  0  0  0  0
   -9.0970   -7.3274   33.2700 C   0  0  0  0  0  0  0  0  0  0  0  0
   -8.7417   -6.5430   34.3235 C   0  0  0  0  0  0  0  0  0  0  0  0
  -10.0863   -6.1023   34.7846 N   0  0  0  0  0  0  0  0  0  0  0  0
  -10.9520   -6.9335   34.3305 N   0  0  0  0  0  0  0  0  0  0  0  0
  -10.3076  -11.3740   32.2204 C   0  0  0  0  0  0  0  0  0  0  0  0
   -9.0606  -10.7709   32.0369 C   0  0  0  0  0  0  0  0  0  0  0  0
   -9.8230  -10.5247   30.7442 C   0  0  0  0  0  0  0  0  0  0  0  0
  -11.6322  -18.3468   29.2136 C   0  0  0  0  0  0  0  0  0  0  0  0
  -12.5874  -19.9819   29.0342 C   0  0  0  0  0  0  0  0  0  0  0  0
  -12.7701  -21.2101   29.5594 N   0  0  0  0  0  0  0  0  0  0  0  0
  -12.1498  -21.5642   30.6547 C   0  0  0  0  0  0  0  0  0  0  0  0
  -12.5910  -21.9628   31.7946 N   0  0  0  0  0  0  0  0  0  0  0  0
  -11.7164  -21.5518   32.6936 C   0  0  0  0  0  0  0  0  0  0  0  0
  -10.7633  -20.8249   32.0335 C   0  0  0  0  0  0  0  0  0  0  0  0
  -10.9734  -20.9718   30.6871 N   0  0  0  0  0  0  0  0  0  0  0  0
  -10.8736  -20.0863   29.3948 C   0  0  0  0  0  0  0  0  0  0  0  0
  -11.3015  -16.0008   32.4117 H   0  0  0  0  0  0  0  0  0  0  0  0
  -12.7044  -14.6833   33.6350 H   0  0  0  0  0  0  0  0  0  0  0  0
  -13.9595  -14.2737   33.2616 H   0  0  0  0  0  0  0  0  0  0  0  0
  -12.9768  -12.1554   34.9727 H   0  0  0  0  0  0  0  0  0  0  0  0
  -13.8387  -11.6538   33.6786 H   0  0  0  0  0  0  0  0  0  0  0  0
   -8.3696   -7.2071   32.5180 H   0  0  0  0  0  0  0  0  0  0  0  0
   -7.8455   -6.0944   34.7434 H   0  0  0  0  0  0  0  0  0  0  0  0
  -10.3364   -5.5231   35.5881 H   0  0  0  0  0  0  0  0  0  0  0  0
   -9.7843  -12.4178   32.5450 H   0  0  0  0  0  0  0  0  0  0  0  0
   -8.1117  -11.2653   31.8071 H   0  0  0  0  0  0  0  0  0  0  0  0
   -8.4502  -11.4648   32.6979 H   0  0  0  0  0  0  0  0  0  0  0  0
   -9.0214  -10.1955   30.0922 H   0  0  0  0  0  0  0  0  0  0  0  0
  -10.5879   -9.8933   30.2550 H   0  0  0  0  0  0  0  0  0  0  0  0
  -12.4350  -20.4193   28.0406 H   0  0  0  0  0  0  0  0  0  0  0  0
  -11.9273  -21.6989   33.7439 H   0  0  0  0  0  0  0  0  0  0  0  0
  -10.0316  -20.1329   32.3952 H   0  0  0  0  0  0  0  0  0  0  0  0
  -10.6841  -20.9654   28.6909 H   0  0  0  0  0  0  0  0  0  0  0  0
  1  2  2  0
  2  3  1  0
  3  4  1  0
  4  5  1  0
  5  6  1  0
  6  7  1  0
  7  8  2  0
  7  9  1  0
  9 10  1  0
 10 11  2  0
 11 12  1  0
 12 13  1  0
  6 14  1  0
 14 15  1  0
 15 16  1  0
  2 17  1  0
 17 18  1  0
 18 19  2  0
 19 20  1  0
 20 21  2  0
 21 22  1  0
 22 23  2  0
 23 24  1  0
 24 25  1  0
 13  9  2  0
 16 14  1  0
 25 17  2  0
 24 20  1  0
  3 26  1  0
  4 27  1  0
  4 28  1  0
  5 29  1  0
  5 30  1  0
 10 31  1  0
 11 32  1  0
 12 33  1  0
 14 34  1  0
 15 35  1  0
 15 36  1  0
 16 37  1  0
 16 38  1  0
 18 39  1  0
 22 40  1  0
 23 41  1  0
 25 42  1  0
M  END
>  <Energy>  (880) 
1646.8586486562417

>  <compound_id>  (880) 
45302

>  <target_id>  (880) 
1

>  <reference_id>  (880) 
7

>  <inspiration_ids>  (880) 
[107, 7]

>  <energy_score>  (880) 
1529.635061625681

>  <distance_score>  (880) 
5.598226263899057

>  <path>  (880) 
/opt/xchem-fragalysis-2/maxwin/BulkDock/SCRATCH/511022/C45302-P7/C45302-P7.minimised.mol

>  <scratch_subdir>  (880) 
/opt/xchem-fragalysis-2/maxwin/BulkDock/SCRATCH/511022/C45302-P7

>  <fragmenstein_runtime>  (880) 
13.82434344291687

>  <fragmenstein_outcome>  (880) 
too moved

>  <fragmenstein_mode>  (880) 
expansion

>  <fragmenstein_error>  (880) 


$$$$
C45303-P107
     RDKit          3D

 41 43  0  0  0  0  0  0  0  0999 V2000
  -17.6517  -12.6494   37.6065 C   0  0  0  0  0  0  0  0  0  0  0  0
  -16.4302  -13.3476   38.2730 C   0  0  0  0  0  0  0  0  0  0  0  0
  -15.2266  -12.3417   38.1074 C   0  0  0  0  0  0  0  0  0  0  0  0
  -15.2843  -10.9724   38.6144 N   0  0  0  0  0  0  0  0  0  0  0  0
  -15.9453   -9.8004   38.0988 C   0  0  0  0  0  0  0  0  0  0  0  0
  -16.6830   -9.6680   37.1655 O   0  0  0  0  0  0  0  0  0  0  0  0
  -15.5334   -8.5256   38.8288 C   0  0  0  0  0  0  0  0  0  0  0  0
  -14.5590   -8.3156   39.8554 C   0  0  0  0  0  0  0  0  0  0  0  0
  -14.5223   -6.9590   40.0868 C   0  0  0  0  0  0  0  0  0  0  0  0
  -15.4360   -6.4184   39.2410 N   0  0  0  0  0  0  0  0  0  0  0  0
  -16.0281   -7.3223   38.4488 N   0  0  0  0  0  0  0  0  0  0  0  0
  -15.8873  -14.7164   37.6357 N   0  0  0  0  0  0  0  0  0  0  0  0
  -17.2510  -15.1894   38.0177 C   0  0  0  0  0  0  0  0  0  0  0  0
  -15.6087  -15.0668   36.2713 C   0  0  0  0  0  0  0  0  0  0  0  0
  -15.7971  -14.4545   35.2564 O   0  0  0  0  0  0  0  0  0  0  0  0
  -15.0905  -16.4689   36.0990 C   0  0  0  0  0  0  0  0  0  0  0  0
  -15.8747  -17.5268   35.6528 C   0  0  0  0  0  0  0  0  0  0  0  0
  -15.0119  -18.4802   35.1867 N   0  0  0  0  0  0  0  0  0  0  0  0
  -15.2769  -19.6429   34.4656 C   0  0  0  0  0  0  0  0  0  0  0  0
  -14.2580  -20.4120   34.0581 C   0  0  0  0  0  0  0  0  0  0  0  0
  -12.9084  -19.9175   34.4768 C   0  0  0  0  0  0  0  0  0  0  0  0
  -12.6541  -18.8378   35.1518 N   0  0  0  0  0  0  0  0  0  0  0  0
  -13.7221  -18.0568   35.4902 C   0  0  0  0  0  0  0  0  0  0  0  0
  -13.7539  -16.8552   36.0491 N   0  0  0  0  0  0  0  0  0  0  0  0
  -18.5970  -13.1849   37.7337 H   0  0  0  0  0  0  0  0  0  0  0  0
  -17.8403  -11.6810   38.0757 H   0  0  0  0  0  0  0  0  0  0  0  0
  -17.4859  -12.4989   36.5349 H   0  0  0  0  0  0  0  0  0  0  0  0
  -16.5538  -13.4476   39.3634 H   0  0  0  0  0  0  0  0  0  0  0  0
  -14.9883  -12.2546   37.0412 H   0  0  0  0  0  0  0  0  0  0  0  0
  -14.3751  -12.7858   38.6262 H   0  0  0  0  0  0  0  0  0  0  0  0
  -14.8020  -10.7302   39.4653 H   0  0  0  0  0  0  0  0  0  0  0  0
  -13.9361   -9.0464   40.3506 H   0  0  0  0  0  0  0  0  0  0  0  0
  -13.9365   -6.3509   40.7617 H   0  0  0  0  0  0  0  0  0  0  0  0
  -15.6986   -5.4427   39.1379 H   0  0  0  0  0  0  0  0  0  0  0  0
  -17.5999  -15.0293   39.0482 H   0  0  0  0  0  0  0  0  0  0  0  0
  -18.0023  -15.0176   37.2389 H   0  0  0  0  0  0  0  0  0  0  0  0
  -17.1616  -16.2870   37.9983 H   0  0  0  0  0  0  0  0  0  0  0  0
  -16.9425  -17.5913   35.4983 H   0  0  0  0  0  0  0  0  0  0  0  0
  -16.3136  -19.8797   34.2622 H   0  0  0  0  0  0  0  0  0  0  0  0
  -14.3509  -21.3402   33.5107 H   0  0  0  0  0  0  0  0  0  0  0  0
  -12.0730  -20.5607   34.1641 H   0  0  0  0  0  0  0  0  0  0  0  0
  1  2  1  0
  2  3  1  0
  3  4  1  0
  4  5  1  0
  5  6  2  0
  5  7  1  0
  7  8  1  0
  8  9  2  0
  9 10  1  0
 10 11  1  0
  2 12  1  0
 12 13  1  0
 12 14  1  0
 14 15  2  0
 14 16  1  0
 16 17  2  0
 17 18  1  0
 18 19  1  0
 19 20  2  0
 20 21  1  0
 21 22  2  0
 22 23  1  0
 23 24  2  0
 11  7  2  0
 24 16  1  0
 23 18  1  0
  1 25  1  0
  1 26  1  0
  1 27  1  0
  2 28  1  0
  3 29  1  0
  3 30  1  0
  4 31  1  0
  8 32  1  0
  9 33  1  0
 10 34  1  0
 13 35  1  0
 13 36  1  0
 13 37  1  0
 17 38  1  0
 19 39  1  0
 20 40  1  0
 21 41  1  0
M  END
>  <Energy>  (881) 
192.15338562782554

>  <compound_id>  (881) 
45303

>  <target_id>  (881) 
1

>  <reference_id>  (881) 
107

>  <inspiration_ids>  (881) 
[107, 7]

>  <energy_score>  (881) 
58.12526247234234

>  <distance_score>  (881) 
7.883380365653843

>  <path>  (881) 
/opt/xchem-fragalysis-2/maxwin/BulkDock/SCRATCH/511022/C45303-P107/C45303-P107.minimised.mol

>  <scratch_subdir>  (881) 
/opt/xchem-fragalysis-2/maxwin/BulkDock/SCRATCH/511022/C45303-P107

>  <fragmenstein_runtime>  (881) 
18.81156277656555

>  <fragmenstein_outcome>  (881) 
too moved

>  <fragmenstein_mode>  (881) 
expansion

>  <fragmenstein_error>  (881) 


$$$$
C45303-P7
     RDKit          3D

 41 43  0  0  0  0  0  0  0  0999 V2000
  -15.8222   -9.1362   34.5880 C   0  0  0  0  0  0  0  0  0  0  0  0
  -14.9449   -9.9359   35.5365 C   0  0  0  0  0  0  0  0  0  0  0  0
  -13.4106   -9.3156   35.7372 C   0  0  0  0  0  0  0  0  0  0  0  0
  -13.1836   -7.7967   36.2001 N   0  0  0  0  0  0  0  0  0  0  0  0
  -11.8192   -6.4492   35.6271 C   0  0  0  0  0  0  0  0  0  0  0  0
  -10.8755   -6.5628   34.8905 O   0  0  0  0  0  0  0  0  0  0  0  0
  -12.1210   -4.7670   36.2101 C   0  0  0  0  0  0  0  0  0  0  0  0
  -11.2921   -3.6163   36.3341 C   0  0  0  0  0  0  0  0  0  0  0  0
  -12.0678   -2.6126   36.8672 C   0  0  0  0  0  0  0  0  0  0  0  0
  -13.2836   -3.1683   37.0849 N   0  0  0  0  0  0  0  0  0  0  0  0
  -13.3209   -4.4822   36.8187 N   0  0  0  0  0  0  0  0  0  0  0  0
  -15.2944  -11.5388   35.3054 N   0  0  0  0  0  0  0  0  0  0  0  0
  -13.9272  -11.5584   34.8593 C   0  0  0  0  0  0  0  0  0  0  0  0
  -15.5220  -12.5965   36.2555 C   0  0  0  0  0  0  0  0  0  0  0  0
  -15.4283  -12.6003   37.4545 O   0  0  0  0  0  0  0  0  0  0  0  0
  -15.8313  -13.9858   35.6558 C   0  0  0  0  0  0  0  0  0  0  0  0
  -15.0255  -14.6490   34.7257 C   0  0  0  0  0  0  0  0  0  0  0  0
  -15.0119  -15.9802   35.0991 N   0  0  0  0  0  0  0  0  0  0  0  0
  -14.1333  -17.0087   34.7628 C   0  0  0  0  0  0  0  0  0  0  0  0
  -14.4123  -18.2628   35.1464 C   0  0  0  0  0  0  0  0  0  0  0  0
  -15.7143  -18.3993   35.8589 C   0  0  0  0  0  0  0  0  0  0  0  0
  -16.4853  -17.4340   36.2588 N   0  0  0  0  0  0  0  0  0  0  0  0
  -16.0863  -16.1656   35.9492 C   0  0  0  0  0  0  0  0  0  0  0  0
  -16.5123  -14.9856   36.3704 N   0  0  0  0  0  0  0  0  0  0  0  0
  -16.8676   -9.4216   34.7322 H   0  0  0  0  0  0  0  0  0  0  0  0
  -15.7768   -8.0646   34.7824 H   0  0  0  0  0  0  0  0  0  0  0  0
  -15.5545   -9.3395   33.5523 H   0  0  0  0  0  0  0  0  0  0  0  0
  -15.3900   -9.7829   36.5325 H   0  0  0  0  0  0  0  0  0  0  0  0
  -12.6913   -9.5984   34.9768 H   0  0  0  0  0  0  0  0  0  0  0  0
  -13.1306   -9.8542   36.6617 H   0  0  0  0  0  0  0  0  0  0  0  0
  -13.9712   -7.3567   36.8071 H   0  0  0  0  0  0  0  0  0  0  0  0
  -10.2588   -3.4733   36.1224 H   0  0  0  0  0  0  0  0  0  0  0  0
  -11.8567   -1.5824   37.1144 H   0  0  0  0  0  0  0  0  0  0  0  0
  -14.1249   -2.7244   37.4423 H   0  0  0  0  0  0  0  0  0  0  0  0
  -13.7916  -12.5332   34.4132 H   0  0  0  0  0  0  0  0  0  0  0  0
  -13.1898  -11.6049   35.6673 H   0  0  0  0  0  0  0  0  0  0  0  0
  -13.7430  -10.9267   33.9839 H   0  0  0  0  0  0  0  0  0  0  0  0
  -14.3072  -14.3175   33.9994 H   0  0  0  0  0  0  0  0  0  0  0  0
  -13.2497  -16.7440   34.1950 H   0  0  0  0  0  0  0  0  0  0  0  0
  -13.7969  -19.1311   34.9569 H   0  0  0  0  0  0  0  0  0  0  0  0
  -16.0457  -19.4308   36.0480 H   0  0  0  0  0  0  0  0  0  0  0  0
  1  2  1  0
  2  3  1  0
  3  4  1  0
  4  5  1  0
  5  6  2  0
  5  7  1  0
  7  8  1  0
  8  9  2  0
  9 10  1  0
 10 11  1  0
  2 12  1  0
 12 13  1  0
 12 14  1  0
 14 15  2  0
 14 16  1  0
 16 17  2  0
 17 18  1  0
 18 19  1  0
 19 20  2  0
 20 21  1  0
 21 22  2  0
 22 23  1  0
 23 24  2  0
 11  7  2  0
 24 16  1  0
 23 18  1  0
  1 25  1  0
  1 26  1  0
  1 27  1  0
  2 28  1  0
  3 29  1  0
  3 30  1  0
  4 31  1  0
  8 32  1  0
  9 33  1  0
 10 34  1  0
 13 35  1  0
 13 36  1  0
 13 37  1  0
 17 38  1  0
 19 39  1  0
 20 40  1  0
 21 41  1  0
M  END
>  <Energy>  (882) 
367.15628816014384

>  <compound_id>  (882) 
45303

>  <target_id>  (882) 
1

>  <reference_id>  (882) 
7

>  <inspiration_ids>  (882) 
[107, 7]

>  <energy_score>  (882) 
233.12816500465738

>  <distance_score>  (882) 
8.138065987634526

>  <path>  (882) 
/opt/xchem-fragalysis-2/maxwin/BulkDock/SCRATCH/511022/C45303-P7/C45303-P7.minimised.mol

>  <scratch_subdir>  (882) 
/opt/xchem-fragalysis-2/maxwin/BulkDock/SCRATCH/511022/C45303-P7

>  <fragmenstein_runtime>  (882) 
20.32069230079651

>  <fragmenstein_outcome>  (882) 
too moved

>  <fragmenstein_mode>  (882) 
expansion

>  <fragmenstein_error>  (882) 


$$$$
C45304-P107
     RDKit          3D

 41 44  0  0  0  0  0  0  0  0999 V2000
  -14.8034  -13.6916   39.1930 O   0  0  0  0  0  0  0  0  0  0  0  0
  -15.1743  -13.5553   38.0515 C   0  0  0  0  0  0  0  0  0  0  0  0
  -15.2554  -14.5251   36.9531 N   0  0  0  0  0  0  0  0  0  0  0  0
  -15.0051  -15.9779   36.9251 C   0  0  0  0  0  0  0  0  0  0  0  0
  -14.1609  -16.4346   35.7200 C   0  0  0  0  0  0  0  0  0  0  0  0
  -14.2071  -17.8957   35.3099 C   0  0  0  0  0  0  0  0  0  0  0  0
  -15.2682  -18.6997   34.9321 C   0  0  0  0  0  0  0  0  0  0  0  0
  -14.7148  -19.8284   34.3625 N   0  0  0  0  0  0  0  0  0  0  0  0
  -15.3182  -20.9057   33.7187 C   0  0  0  0  0  0  0  0  0  0  0  0
  -14.5560  -21.8792   33.1980 C   0  0  0  0  0  0  0  0  0  0  0  0
  -13.0901  -21.6924   33.3752 C   0  0  0  0  0  0  0  0  0  0  0  0
  -12.5137  -20.6843   33.9581 N   0  0  0  0  0  0  0  0  0  0  0  0
  -13.3316  -19.7188   34.4836 C   0  0  0  0  0  0  0  0  0  0  0  0
  -13.0279  -18.5757   35.0694 N   0  0  0  0  0  0  0  0  0  0  0  0
  -15.8146  -12.0776   37.6035 C   0  0  0  0  0  0  0  0  0  0  0  0
  -15.1066  -10.7509   38.2913 C   0  0  0  0  0  0  0  0  0  0  0  0
  -13.8418  -10.6850   38.9143 C   0  0  0  0  0  0  0  0  0  0  0  0
  -13.7098   -9.3877   39.3550 C   0  0  0  0  0  0  0  0  0  0  0  0
  -14.8653   -8.7625   39.0087 N   0  0  0  0  0  0  0  0  0  0  0  0
  -15.7000   -9.5376   38.2961 N   0  0  0  0  0  0  0  0  0  0  0  0
  -17.3790  -12.0423   37.8525 C   0  0  0  0  0  0  0  0  0  0  0  0
  -17.5825  -12.3074   36.3534 C   0  0  0  0  0  0  0  0  0  0  0  0
  -16.1602  -11.7781   36.1050 C   0  0  0  0  0  0  0  0  0  0  0  0
  -15.6904  -14.0853   36.1569 H   0  0  0  0  0  0  0  0  0  0  0  0
  -15.9942  -16.4473   36.8951 H   0  0  0  0  0  0  0  0  0  0  0  0
  -14.5296  -16.2674   37.8677 H   0  0  0  0  0  0  0  0  0  0  0  0
  -14.4442  -15.8458   34.8394 H   0  0  0  0  0  0  0  0  0  0  0  0
  -13.1170  -16.1702   35.9187 H   0  0  0  0  0  0  0  0  0  0  0  0
  -16.3361  -18.5361   34.9400 H   0  0  0  0  0  0  0  0  0  0  0  0
  -16.3991  -20.9182   33.6677 H   0  0  0  0  0  0  0  0  0  0  0  0
  -14.9306  -22.7585   32.6928 H   0  0  0  0  0  0  0  0  0  0  0  0
  -12.4623  -22.4977   32.9587 H   0  0  0  0  0  0  0  0  0  0  0  0
  -13.1259  -11.4816   39.0535 H   0  0  0  0  0  0  0  0  0  0  0  0
  -12.9230   -8.8853   39.8989 H   0  0  0  0  0  0  0  0  0  0  0  0
  -15.1452   -7.8086   39.2091 H   0  0  0  0  0  0  0  0  0  0  0  0
  -17.7973  -11.0848   38.1813 H   0  0  0  0  0  0  0  0  0  0  0  0
  -17.7725  -12.8242   38.5099 H   0  0  0  0  0  0  0  0  0  0  0  0
  -18.3849  -11.7368   35.8779 H   0  0  0  0  0  0  0  0  0  0  0  0
  -17.7211  -13.3645   36.1141 H   0  0  0  0  0  0  0  0  0  0  0  0
  -15.5762  -12.2869   35.3342 H   0  0  0  0  0  0  0  0  0  0  0  0
  -16.1717  -10.7162   35.8478 H   0  0  0  0  0  0  0  0  0  0  0  0
  1  2  2  0
  2  3  1  0
  3  4  1  0
  4  5  1  0
  5  6  1  0
  6  7  2  0
  7  8  1  0
  8  9  1  0
  9 10  2  0
 10 11  1  0
 11 12  2  0
 12 13  1  0
 13 14  2  0
  2 15  1  0
 15 16  1  0
 16 17  1  0
 17 18  2  0
 18 19  1  0
 19 20  1  0
 15 21  1  0
 21 22  1  0
 22 23  1  0
 14  6  1  0
 23 15  1  0
 13  8  1  0
 20 16  2  0
  3 24  1  0
  4 25  1  0
  4 26  1  0
  5 27  1  0
  5 28  1  0
  7 29  1  0
  9 30  1  0
 10 31  1  0
 11 32  1  0
 17 33  1  0
 18 34  1  0
 19 35  1  0
 21 36  1  0
 21 37  1  0
 22 38  1  0
 22 39  1  0
 23 40  1  0
 23 41  1  0
M  END
>  <Energy>  (883) 
70.477349431083283

>  <compound_id>  (883) 
45304

>  <target_id>  (883) 
1

>  <reference_id>  (883) 
107

>  <inspiration_ids>  (883) 
[107, 7]

>  <energy_score>  (883) 
-34.939735579289504

>  <distance_score>  (883) 
7.802505339966071

>  <path>  (883) 
/opt/xchem-fragalysis-2/maxwin/BulkDock/SCRATCH/511022/C45304-P107/C45304-P107.minimised.mol

>  <scratch_subdir>  (883) 
/opt/xchem-fragalysis-2/maxwin/BulkDock/SCRATCH/511022/C45304-P107

>  <fragmenstein_runtime>  (883) 
15.174067974090576

>  <fragmenstein_outcome>  (883) 
too moved

>  <fragmenstein_mode>  (883) 
expansion

>  <fragmenstein_error>  (883) 


$$$$
C45304-P7
     RDKit          3D

 41 44  0  0  0  0  0  0  0  0999 V2000
  -14.8122  -11.7805   35.5246 O   0  0  0  0  0  0  0  0  0  0  0  0
  -15.6385  -12.2307   36.2738 C   0  0  0  0  0  0  0  0  0  0  0  0
  -16.1565  -13.5934   36.4113 N   0  0  0  0  0  0  0  0  0  0  0  0
  -15.9031  -14.8031   35.6196 C   0  0  0  0  0  0  0  0  0  0  0  0
  -15.7785  -16.1300   36.4046 C   0  0  0  0  0  0  0  0  0  0  0  0
  -15.2841  -17.3431   35.6279 C   0  0  0  0  0  0  0  0  0  0  0  0
  -14.0322  -17.9335   35.5970 C   0  0  0  0  0  0  0  0  0  0  0  0
  -14.1744  -19.1014   34.8805 N   0  0  0  0  0  0  0  0  0  0  0  0
  -13.2515  -20.0889   34.5642 C   0  0  0  0  0  0  0  0  0  0  0  0
  -13.6378  -21.1646   33.8589 C   0  0  0  0  0  0  0  0  0  0  0  0
  -15.0703  -21.1587   33.4486 C   0  0  0  0  0  0  0  0  0  0  0  0
  -15.9359  -20.2208   33.7002 N   0  0  0  0  0  0  0  0  0  0  0  0
  -15.5003  -19.1815   34.4728 C   0  0  0  0  0  0  0  0  0  0  0  0
  -16.1595  -18.1162   34.8875 N   0  0  0  0  0  0  0  0  0  0  0  0
  -16.3634  -11.2231   37.3496 C   0  0  0  0  0  0  0  0  0  0  0  0
  -15.9662   -9.6562   37.0972 C   0  0  0  0  0  0  0  0  0  0  0  0
  -15.0534   -8.9074   37.8840 C   0  0  0  0  0  0  0  0  0  0  0  0
  -15.2204   -7.6053   37.4752 C   0  0  0  0  0  0  0  0  0  0  0  0
  -16.0724   -7.6556   36.4140 N   0  0  0  0  0  0  0  0  0  0  0  0
  -16.6062   -8.8739   36.2129 N   0  0  0  0  0  0  0  0  0  0  0  0
  -17.9198  -11.3447   37.5140 C   0  0  0  0  0  0  0  0  0  0  0  0
  -17.7245  -12.0232   38.8759 C   0  0  0  0  0  0  0  0  0  0  0  0
  -16.2426  -11.6286   38.8577 C   0  0  0  0  0  0  0  0  0  0  0  0
  -16.9055  -13.5950   37.0885 H   0  0  0  0  0  0  0  0  0  0  0  0
  -16.7739  -14.8535   34.9752 H   0  0  0  0  0  0  0  0  0  0  0  0
  -15.0376  -14.6227   34.9749 H   0  0  0  0  0  0  0  0  0  0  0  0
  -15.1223  -15.9911   37.2709 H   0  0  0  0  0  0  0  0  0  0  0  0
  -16.7621  -16.3755   36.8262 H   0  0  0  0  0  0  0  0  0  0  0  0
  -13.0887  -17.6646   36.0500 H   0  0  0  0  0  0  0  0  0  0  0  0
  -12.2539  -19.9471   34.9399 H   0  0  0  0  0  0  0  0  0  0  0  0
  -13.0036  -22.0024   33.6115 H   0  0  0  0  0  0  0  0  0  0  0  0
  -15.4027  -22.0291   32.8635 H   0  0  0  0  0  0  0  0  0  0  0  0
  -14.4190   -9.2571   38.6866 H   0  0  0  0  0  0  0  0  0  0  0  0
  -14.8005   -6.6726   37.8168 H   0  0  0  0  0  0  0  0  0  0  0  0
  -16.3613   -6.8968   35.8064 H   0  0  0  0  0  0  0  0  0  0  0  0
  -18.4328  -11.9554   36.7643 H   0  0  0  0  0  0  0  0  0  0  0  0
  -18.4629  -10.3953   37.5923 H   0  0  0  0  0  0  0  0  0  0  0  0
  -18.3057  -11.5849   39.6930 H   0  0  0  0  0  0  0  0  0  0  0  0
  -17.9010  -13.1036   38.8733 H   0  0  0  0  0  0  0  0  0  0  0  0
  -15.5530  -12.4531   39.0667 H   0  0  0  0  0  0  0  0  0  0  0  0
  -16.0191  -10.8214   39.5630 H   0  0  0  0  0  0  0  0  0  0  0  0
  1  2  2  0
  2  3  1  0
  3  4  1  0
  4  5  1  0
  5  6  1  0
  6  7  2  0
  7  8  1  0
  8  9  1  0
  9 10  2  0
 10 11  1  0
 11 12  2  0
 12 13  1  0
 13 14  2  0
  2 15  1  0
 15 16  1  0
 16 17  1  0
 17 18  2  0
 18 19  1  0
 19 20  1  0
 15 21  1  0
 21 22  1  0
 22 23  1  0
 14  6  1  0
 23 15  1  0
 13  8  1  0
 20 16  2  0
  3 24  1  0
  4 25  1  0
  4 26  1  0
  5 27  1  0
  5 28  1  0
  7 29  1  0
  9 30  1  0
 10 31  1  0
 11 32  1  0
 17 33  1  0
 18 34  1  0
 19 35  1  0
 21 36  1  0
 21 37  1  0
 22 38  1  0
 22 39  1  0
 23 40  1  0
 23 41  1  0
M  END
>  <Energy>  (884) 
68.75157237128812

>  <compound_id>  (884) 
45304

>  <target_id>  (884) 
1

>  <reference_id>  (884) 
7

>  <inspiration_ids>  (884) 
[107, 7]

>  <energy_score>  (884) 
-36.665512639086046

>  <distance_score>  (884) 
7.616161127218626

>  <path>  (884) 
/opt/xchem-fragalysis-2/maxwin/BulkDock/SCRATCH/511022/C45304-P7/C45304-P7.minimised.mol

>  <scratch_subdir>  (884) 
/opt/xchem-fragalysis-2/maxwin/BulkDock/SCRATCH/511022/C45304-P7

>  <fragmenstein_runtime>  (884) 
16.996490716934204

>  <fragmenstein_outcome>  (884) 
too moved

>  <fragmenstein_mode>  (884) 
expansion

>  <fragmenstein_error>  (884) 


$$$$
C45281-P107
     RDKit          3D

 35 38  0  0  0  0  0  0  0  0999 V2000
  -14.7403  -14.5483   38.7104 O   0  0  0  0  0  0  0  0  0  0  0  0
  -15.6435  -14.4440   37.9135 C   0  0  0  0  0  0  0  0  0  0  0  0
  -16.0772  -15.3428   36.8438 N   0  0  0  0  0  0  0  0  0  0  0  0
  -15.5347  -16.5152   36.3753 C   0  0  0  0  0  0  0  0  0  0  0  0
  -16.3886  -17.4741   35.5841 C   0  0  0  0  0  0  0  0  0  0  0  0
  -16.0043  -18.5227   34.9200 N   0  0  0  0  0  0  0  0  0  0  0  0
  -14.6743  -18.7907   34.9693 C   0  0  0  0  0  0  0  0  0  0  0  0
  -14.0065  -19.7166   34.3210 N   0  0  0  0  0  0  0  0  0  0  0  0
  -12.6996  -19.5626   34.6990 C   0  0  0  0  0  0  0  0  0  0  0  0
  -12.5604  -18.5289   35.5923 C   0  0  0  0  0  0  0  0  0  0  0  0
  -13.8193  -18.0200   35.7516 N   0  0  0  0  0  0  0  0  0  0  0  0
  -14.2528  -16.9054   36.4652 C   0  0  0  0  0  0  0  0  0  0  0  0
  -16.5453  -13.0827   38.0078 C   0  0  0  0  0  0  0  0  0  0  0  0
  -15.5811  -11.7962   37.9840 C   0  0  0  0  0  0  0  0  0  0  0  0
  -15.0449  -11.1137   39.1040 C   0  0  0  0  0  0  0  0  0  0  0  0
  -14.1117  -10.2468   38.5759 C   0  0  0  0  0  0  0  0  0  0  0  0
  -14.0995  -10.5208   37.2396 N   0  0  0  0  0  0  0  0  0  0  0  0
  -15.1585  -11.2489   36.8406 N   0  0  0  0  0  0  0  0  0  0  0  0
  -17.8114  -12.8391   37.1165 C   0  0  0  0  0  0  0  0  0  0  0  0
  -18.6403  -13.5292   38.2144 C   0  0  0  0  0  0  0  0  0  0  0  0
  -17.5544  -13.0803   39.2131 C   0  0  0  0  0  0  0  0  0  0  0  0
  -16.9253  -14.9748   36.4250 H   0  0  0  0  0  0  0  0  0  0  0  0
  -17.4670  -17.2544   35.6017 H   0  0  0  0  0  0  0  0  0  0  0  0
  -11.9317  -20.2021   34.2910 H   0  0  0  0  0  0  0  0  0  0  0  0
  -11.6941  -18.1063   36.0777 H   0  0  0  0  0  0  0  0  0  0  0  0
  -13.4992  -16.3349   36.9883 H   0  0  0  0  0  0  0  0  0  0  0  0
  -15.2331  -11.3002   40.1513 H   0  0  0  0  0  0  0  0  0  0  0  0
  -13.3848   -9.5951   39.0370 H   0  0  0  0  0  0  0  0  0  0  0  0
  -13.4158  -10.2642   36.5313 H   0  0  0  0  0  0  0  0  0  0  0  0
  -17.8415  -13.2867   36.1231 H   0  0  0  0  0  0  0  0  0  0  0  0
  -18.0811  -11.7808   36.9917 H   0  0  0  0  0  0  0  0  0  0  0  0
  -18.7179  -14.6162   38.0995 H   0  0  0  0  0  0  0  0  0  0  0  0
  -19.6394  -13.1200   38.3830 H   0  0  0  0  0  0  0  0  0  0  0  0
  -17.3473  -13.7911   40.0182 H   0  0  0  0  0  0  0  0  0  0  0  0
  -17.7549  -12.0981   39.6577 H   0  0  0  0  0  0  0  0  0  0  0  0
  1  2  2  0
  2  3  1  0
  3  4  1  0
  4  5  1  0
  5  6  2  0
  6  7  1  0
  7  8  2  0
  8  9  1  0
  9 10  2  0
 10 11  1  0
 11 12  1  0
  2 13  1  0
 13 14  1  0
 14 15  1  0
 15 16  2  0
 16 17  1  0
 17 18  1  0
 13 19  1  0
 19 20  1  0
 20 21  1  0
 12  4  2  0
 21 13  1  0
 11  7  1  0
 18 14  2  0
  3 22  1  0
  5 23  1  0
  9 24  1  0
 10 25  1  0
 12 26  1  0
 15 27  1  0
 16 28  1  0
 17 29  1  0
 19 30  1  0
 19 31  1  0
 20 32  1  0
 20 33  1  0
 21 34  1  0
 21 35  1  0
M  END
>  <Energy>  (885) 
67.830371672672712

>  <compound_id>  (885) 
45281

>  <target_id>  (885) 
1

>  <reference_id>  (885) 
107

>  <inspiration_ids>  (885) 
[107, 7]

>  <energy_score>  (885) 
-43.883879635693376

>  <distance_score>  (885) 
9.715182051049796

>  <path>  (885) 
/opt/xchem-fragalysis-2/maxwin/BulkDock/SCRATCH/511022/C45281-P107/C45281-P107.minimised.mol

>  <scratch_subdir>  (885) 
/opt/xchem-fragalysis-2/maxwin/BulkDock/SCRATCH/511022/C45281-P107

>  <fragmenstein_runtime>  (885) 
12.073829889297485

>  <fragmenstein_outcome>  (885) 
too moved

>  <fragmenstein_mode>  (885) 
expansion

>  <fragmenstein_error>  (885) 


$$$$
C45281-P7
     RDKit          3D

 35 38  0  0  0  0  0  0  0  0999 V2000
  -17.3380  -13.7049   36.2361 O   0  0  0  0  0  0  0  0  0  0  0  0
  -16.6928  -13.9206   37.2307 C   0  0  0  0  0  0  0  0  0  0  0  0
  -15.9155  -15.0984   37.6263 N   0  0  0  0  0  0  0  0  0  0  0  0
  -15.6226  -16.2588   36.9423 C   0  0  0  0  0  0  0  0  0  0  0  0
  -16.5192  -16.8188   35.8687 C   0  0  0  0  0  0  0  0  0  0  0  0
  -16.2657  -17.8213   35.0757 N   0  0  0  0  0  0  0  0  0  0  0  0
  -15.0360  -18.3809   35.1966 C   0  0  0  0  0  0  0  0  0  0  0  0
  -14.4722  -19.2939   34.4398 N   0  0  0  0  0  0  0  0  0  0  0  0
  -13.1976  -19.4437   34.9248 C   0  0  0  0  0  0  0  0  0  0  0  0
  -12.9813  -18.6132   35.9964 C   0  0  0  0  0  0  0  0  0  0  0  0
  -14.1656  -17.9618   36.1904 N   0  0  0  0  0  0  0  0  0  0  0  0
  -14.4880  -16.9645   37.1034 C   0  0  0  0  0  0  0  0  0  0  0  0
  -16.6771  -12.7666   38.3526 C   0  0  0  0  0  0  0  0  0  0  0  0
  -15.7273  -11.5164   37.9395 C   0  0  0  0  0  0  0  0  0  0  0  0
  -16.0207  -10.5243   36.9734 C   0  0  0  0  0  0  0  0  0  0  0  0
  -14.9633   -9.6422   37.0323 C   0  0  0  0  0  0  0  0  0  0  0  0
  -14.1148  -10.1382   37.9789 N   0  0  0  0  0  0  0  0  0  0  0  0
  -14.5734  -11.2608   38.5618 N   0  0  0  0  0  0  0  0  0  0  0  0
  -18.1143  -12.2679   38.7735 C   0  0  0  0  0  0  0  0  0  0  0  0
  -17.6046  -12.1508   40.2191 C   0  0  0  0  0  0  0  0  0  0  0  0
  -16.5322  -13.1924   39.8596 C   0  0  0  0  0  0  0  0  0  0  0  0
  -15.4312  -14.8993   38.4960 H   0  0  0  0  0  0  0  0  0  0  0  0
  -17.5076  -16.3427   35.8020 H   0  0  0  0  0  0  0  0  0  0  0  0
  -12.5090  -20.1456   34.4736 H   0  0  0  0  0  0  0  0  0  0  0  0
  -12.1152  -18.4402   36.6156 H   0  0  0  0  0  0  0  0  0  0  0  0
  -13.7253  -16.7149   37.8296 H   0  0  0  0  0  0  0  0  0  0  0  0
  -16.8864  -10.4642   36.3289 H   0  0  0  0  0  0  0  0  0  0  0  0
  -14.7424   -8.7379   36.4871 H   0  0  0  0  0  0  0  0  0  0  0  0
  -13.2161   -9.7781   38.2858 H   0  0  0  0  0  0  0  0  0  0  0  0
  -18.8987  -13.0251   38.6484 H   0  0  0  0  0  0  0  0  0  0  0  0
  -18.4724  -11.3344   38.3302 H   0  0  0  0  0  0  0  0  0  0  0  0
  -18.3127  -12.4482   40.9968 H   0  0  0  0  0  0  0  0  0  0  0  0
  -17.2003  -11.1637   40.4699 H   0  0  0  0  0  0  0  0  0  0  0  0
  -15.5578  -13.0438   40.3328 H   0  0  0  0  0  0  0  0  0  0  0  0
  -16.8579  -14.2181   40.0743 H   0  0  0  0  0  0  0  0  0  0  0  0
  1  2  2  0
  2  3  1  0
  3  4  1  0
  4  5  1  0
  5  6  2  0
  6  7  1  0
  7  8  2  0
  8  9  1  0
  9 10  2  0
 10 11  1  0
 11 12  1  0
  2 13  1  0
 13 14  1  0
 14 15  1  0
 15 16  2  0
 16 17  1  0
 17 18  1  0
 13 19  1  0
 19 20  1  0
 20 21  1  0
 12  4  2  0
 21 13  1  0
 11  7  1  0
 18 14  2  0
  3 22  1  0
  5 23  1  0
  9 24  1  0
 10 25  1  0
 12 26  1  0
 15 27  1  0
 16 28  1  0
 17 29  1  0
 19 30  1  0
 19 31  1  0
 20 32  1  0
 20 33  1  0
 21 34  1  0
 21 35  1  0
M  END
>  <Energy>  (886) 
62.079281970982976

>  <compound_id>  (886) 
45281

>  <target_id>  (886) 
1

>  <reference_id>  (886) 
7

>  <inspiration_ids>  (886) 
[107, 7]

>  <energy_score>  (886) 
-49.63496933738571

>  <distance_score>  (886) 
9.858328321864901

>  <path>  (886) 
/opt/xchem-fragalysis-2/maxwin/BulkDock/SCRATCH/511022/C45281-P7/C45281-P7.minimised.mol

>  <scratch_subdir>  (886) 
/opt/xchem-fragalysis-2/maxwin/BulkDock/SCRATCH/511022/C45281-P7

>  <fragmenstein_runtime>  (886) 
17.779048442840576

>  <fragmenstein_outcome>  (886) 
too moved

>  <fragmenstein_mode>  (886) 
expansion

>  <fragmenstein_error>  (886) 


$$$$
C45305-P107
     RDKit          3D

 41 43  0  0  0  0  0  0  0  0999 V2000
  -14.8162  -11.7299   34.1192 C   0  0  0  0  0  0  0  0  0  0  0  0
  -13.9328  -11.8977   35.3754 C   0  0  0  0  0  0  0  0  0  0  0  0
  -12.5216  -10.7924   35.9235 C   0  0  0  0  0  0  0  0  0  0  0  0
  -11.3831   -9.4652   35.0909 C   0  0  0  0  0  0  0  0  0  0  0  0
  -12.0169   -7.5818   35.3044 N   0  0  0  0  0  0  0  0  0  0  0  0
  -11.7601   -6.4895   35.0533 C   0  0  0  0  0  0  0  0  0  0  0  0
  -10.4601   -6.6596   34.0927 O   0  0  0  0  0  0  0  0  0  0  0  0
  -12.3605   -4.9253   35.5858 C   0  0  0  0  0  0  0  0  0  0  0  0
  -13.3577   -4.4559   36.6259 C   0  0  0  0  0  0  0  0  0  0  0  0
  -12.8298   -3.4049   37.3411 C   0  0  0  0  0  0  0  0  0  0  0  0
  -11.6927   -3.1358   36.6766 N   0  0  0  0  0  0  0  0  0  0  0  0
  -11.5573   -3.8309   35.5446 N   0  0  0  0  0  0  0  0  0  0  0  0
  -14.0799  -13.4233   35.6374 N   0  0  0  0  0  0  0  0  0  0  0  0
  -13.6599  -14.5594   34.8628 C   0  0  0  0  0  0  0  0  0  0  0  0
  -13.0878  -14.6171   33.8187 O   0  0  0  0  0  0  0  0  0  0  0  0
  -13.8586  -15.9258   35.4692 C   0  0  0  0  0  0  0  0  0  0  0  0
  -15.0231  -16.6739   35.5603 C   0  0  0  0  0  0  0  0  0  0  0  0
  -14.6335  -17.9606   35.2115 N   0  0  0  0  0  0  0  0  0  0  0  0
  -15.3888  -19.0283   34.7241 C   0  0  0  0  0  0  0  0  0  0  0  0
  -14.7657  -20.1143   34.2385 C   0  0  0  0  0  0  0  0  0  0  0  0
  -13.2782  -20.1008   34.3907 C   0  0  0  0  0  0  0  0  0  0  0  0
  -12.5729  -19.1415   34.9031 N   0  0  0  0  0  0  0  0  0  0  0  0
  -13.2465  -18.0065   35.2499 C   0  0  0  0  0  0  0  0  0  0  0  0
  -12.7799  -16.8102   35.5339 N   0  0  0  0  0  0  0  0  0  0  0  0
  -14.3291  -11.2907   33.2647 H   0  0  0  0  0  0  0  0  0  0  0  0
  -15.7239  -11.1719   34.3597 H   0  0  0  0  0  0  0  0  0  0  0  0
  -15.2055  -12.6857   33.7458 H   0  0  0  0  0  0  0  0  0  0  0  0
  -14.6196  -11.5611   36.1722 H   0  0  0  0  0  0  0  0  0  0  0  0
  -13.0297  -10.2178   36.7249 H   0  0  0  0  0  0  0  0  0  0  0  0
  -11.7695  -11.2804   36.5020 H   0  0  0  0  0  0  0  0  0  0  0  0
  -11.0504   -9.5561   34.0596 H   0  0  0  0  0  0  0  0  0  0  0  0
  -10.5712   -9.8341   35.6667 H   0  0  0  0  0  0  0  0  0  0  0  0
  -12.4979   -8.3037   35.7714 H   0  0  0  0  0  0  0  0  0  0  0  0
  -14.3243   -4.8609   36.9052 H   0  0  0  0  0  0  0  0  0  0  0  0
  -13.1727   -2.8372   38.1920 H   0  0  0  0  0  0  0  0  0  0  0  0
  -11.0140   -2.4110   36.8702 H   0  0  0  0  0  0  0  0  0  0  0  0
  -14.4651  -13.7468   36.5144 H   0  0  0  0  0  0  0  0  0  0  0  0
  -16.0650  -16.3892   35.5403 H   0  0  0  0  0  0  0  0  0  0  0  0
  -16.4647  -18.9092   34.7111 H   0  0  0  0  0  0  0  0  0  0  0  0
  -15.2545  -20.9848   33.8226 H   0  0  0  0  0  0  0  0  0  0  0  0
  -12.7651  -21.0142   34.0447 H   0  0  0  0  0  0  0  0  0  0  0  0
  1  2  1  0
  2  3  1  0
  3  4  1  0
  4  5  1  0
  5  6  1  0
  6  7  2  0
  6  8  1  0
  8  9  1  0
  9 10  2  0
 10 11  1  0
 11 12  1  0
  2 13  1  0
 13 14  1  0
 14 15  2  0
 14 16  1  0
 16 17  2  0
 17 18  1  0
 18 19  1  0
 19 20  2  0
 20 21  1  0
 21 22  2  0
 22 23  1  0
 23 24  2  0
 12  8  2  0
 24 16  1  0
 23 18  1  0
  1 25  1  0
  1 26  1  0
  1 27  1  0
  2 28  1  0
  3 29  1  0
  3 30  1  0
  4 31  1  0
  4 32  1  0
  5 33  1  0
  9 34  1  0
 10 35  1  0
 11 36  1  0
 13 37  1  0
 17 38  1  0
 19 39  1  0
 20 40  1  0
 21 41  1  0
M  END
>  <Energy>  (887) 
515.07397566302461

>  <compound_id>  (887) 
45305

>  <target_id>  (887) 
1

>  <reference_id>  (887) 
107

>  <inspiration_ids>  (887) 
[107, 7]

>  <energy_score>  (887) 
425.35613917226226

>  <distance_score>  (887) 
6.625069308721355

>  <path>  (887) 
/opt/xchem-fragalysis-2/maxwin/BulkDock/SCRATCH/511022/C45305-P107/C45305-P107.minimised.mol

>  <scratch_subdir>  (887) 
/opt/xchem-fragalysis-2/maxwin/BulkDock/SCRATCH/511022/C45305-P107

>  <fragmenstein_runtime>  (887) 
21.8490571975708

>  <fragmenstein_outcome>  (887) 
too moved

>  <fragmenstein_mode>  (887) 
expansion

>  <fragmenstein_error>  (887) 


$$$$
C45305-P7
     RDKit          3D

 41 43  0  0  0  0  0  0  0  0999 V2000
  -16.8510  -10.5101   36.2271 C   0  0  0  0  0  0  0  0  0  0  0  0
  -15.4009  -10.9688   36.0262 C   0  0  0  0  0  0  0  0  0  0  0  0
  -14.6629   -9.9333   35.0910 C   0  0  0  0  0  0  0  0  0  0  0  0
  -13.2740   -9.4626   35.6071 C   0  0  0  0  0  0  0  0  0  0  0  0
  -13.1054   -7.8562   36.1355 N   0  0  0  0  0  0  0  0  0  0  0  0
  -11.7915   -6.4552   35.6125 C   0  0  0  0  0  0  0  0  0  0  0  0
  -10.8348   -6.5191   34.8892 O   0  0  0  0  0  0  0  0  0  0  0  0
  -12.1272   -4.7782   36.2008 C   0  0  0  0  0  0  0  0  0  0  0  0
  -11.3041   -3.6220   36.3319 C   0  0  0  0  0  0  0  0  0  0  0  0
  -12.0867   -2.6240   36.8652 C   0  0  0  0  0  0  0  0  0  0  0  0
  -13.3000   -3.1874   37.0772 N   0  0  0  0  0  0  0  0  0  0  0  0
  -13.3299   -4.5010   36.8084 N   0  0  0  0  0  0  0  0  0  0  0  0
  -15.3562  -12.4108   35.6430 N   0  0  0  0  0  0  0  0  0  0  0  0
  -16.2442  -13.5138   35.9785 C   0  0  0  0  0  0  0  0  0  0  0  0
  -17.2783  -13.5259   36.5809 O   0  0  0  0  0  0  0  0  0  0  0  0
  -15.7070  -14.8731   35.5786 C   0  0  0  0  0  0  0  0  0  0  0  0
  -16.3020  -16.1019   35.8651 C   0  0  0  0  0  0  0  0  0  0  0  0
  -15.4442  -17.0763   35.4257 N   0  0  0  0  0  0  0  0  0  0  0  0
  -15.5924  -18.4550   35.3094 C   0  0  0  0  0  0  0  0  0  0  0  0
  -14.5513  -19.1902   34.8896 C   0  0  0  0  0  0  0  0  0  0  0  0
  -13.2734  -18.4359   34.7554 C   0  0  0  0  0  0  0  0  0  0  0  0
  -13.1519  -17.1450   34.7884 N   0  0  0  0  0  0  0  0  0  0  0  0
  -14.2840  -16.4331   35.0240 C   0  0  0  0  0  0  0  0  0  0  0  0
  -14.4599  -15.1202   35.0012 N   0  0  0  0  0  0  0  0  0  0  0  0
  -17.4489  -10.6772   35.3285 H   0  0  0  0  0  0  0  0  0  0  0  0
  -16.8991   -9.4470   36.4866 H   0  0  0  0  0  0  0  0  0  0  0  0
  -17.3261  -11.0545   37.0494 H   0  0  0  0  0  0  0  0  0  0  0  0
  -14.9366  -10.9419   37.0190 H   0  0  0  0  0  0  0  0  0  0  0  0
  -14.5273  -10.3984   34.1074 H   0  0  0  0  0  0  0  0  0  0  0  0
  -15.2886   -9.0480   34.9356 H   0  0  0  0  0  0  0  0  0  0  0  0
  -12.4692   -9.7593   34.9333 H   0  0  0  0  0  0  0  0  0  0  0  0
  -13.1021  -10.0236   36.5388 H   0  0  0  0  0  0  0  0  0  0  0  0
  -13.9148   -7.4607   36.7354 H   0  0  0  0  0  0  0  0  0  0  0  0
  -10.2697   -3.4774   36.1247 H   0  0  0  0  0  0  0  0  0  0  0  0
  -11.8817   -1.5938   37.1170 H   0  0  0  0  0  0  0  0  0  0  0  0
  -14.1451   -2.7494   37.4325 H   0  0  0  0  0  0  0  0  0  0  0  0
  -14.6060  -12.7575   35.0486 H   0  0  0  0  0  0  0  0  0  0  0  0
  -17.2626  -16.3298   36.3079 H   0  0  0  0  0  0  0  0  0  0  0  0
  -16.5667  -18.8710   35.5341 H   0  0  0  0  0  0  0  0  0  0  0  0
  -14.5670  -20.2560   34.7110 H   0  0  0  0  0  0  0  0  0  0  0  0
  -12.3767  -19.0560   34.5934 H   0  0  0  0  0  0  0  0  0  0  0  0
  1  2  1  0
  2  3  1  0
  3  4  1  0
  4  5  1  0
  5  6  1  0
  6  7  2  0
  6  8  1  0
  8  9  1  0
  9 10  2  0
 10 11  1  0
 11 12  1  0
  2 13  1  0
 13 14  1  0
 14 15  2  0
 14 16  1  0
 16 17  2  0
 17 18  1  0
 18 19  1  0
 19 20  2  0
 20 21  1  0
 21 22  2  0
 22 23  1  0
 23 24  2  0
 12  8  2  0
 24 16  1  0
 23 18  1  0
  1 25  1  0
  1 26  1  0
  1 27  1  0
  2 28  1  0
  3 29  1  0
  3 30  1  0
  4 31  1  0
  4 32  1  0
  5 33  1  0
  9 34  1  0
 10 35  1  0
 11 36  1  0
 13 37  1  0
 17 38  1  0
 19 39  1  0
 20 40  1  0
 21 41  1  0
M  END
>  <Energy>  (888) 
238.35371806708199

>  <compound_id>  (888) 
45305

>  <target_id>  (888) 
1

>  <reference_id>  (888) 
7

>  <inspiration_ids>  (888) 
[107, 7]

>  <energy_score>  (888) 
148.63588157632364

>  <distance_score>  (888) 
7.3758626372812195

>  <path>  (888) 
/opt/xchem-fragalysis-2/maxwin/BulkDock/SCRATCH/511022/C45305-P7/C45305-P7.minimised.mol

>  <scratch_subdir>  (888) 
/opt/xchem-fragalysis-2/maxwin/BulkDock/SCRATCH/511022/C45305-P7

>  <fragmenstein_runtime>  (888) 
21.12561321258545

>  <fragmenstein_outcome>  (888) 
too moved

>  <fragmenstein_mode>  (888) 
expansion

>  <fragmenstein_error>  (888) 


$$$$
C45306-P107
     RDKit          3D

 41 43  0  0  0  0  0  0  0  0999 V2000
  -14.8180  -15.7487   37.7538 C   0  0  0  0  0  0  0  0  0  0  0  0
  -16.0678  -15.9708   36.9195 C   0  0  0  0  0  0  0  0  0  0  0  0
  -16.5637  -14.6288   36.2450 C   0  0  0  0  0  0  0  0  0  0  0  0
  -16.4042  -13.2635   36.9639 N   0  0  0  0  0  0  0  0  0  0  0  0
  -17.5966  -13.7606   37.7162 C   0  0  0  0  0  0  0  0  0  0  0  0
  -16.6409  -11.9215   36.4960 C   0  0  0  0  0  0  0  0  0  0  0  0
  -17.1085  -11.5261   35.4578 O   0  0  0  0  0  0  0  0  0  0  0  0
  -16.1960  -10.8607   37.4784 C   0  0  0  0  0  0  0  0  0  0  0  0
  -16.6242   -9.4897   37.4816 C   0  0  0  0  0  0  0  0  0  0  0  0
  -15.8773   -8.8525   38.4444 C   0  0  0  0  0  0  0  0  0  0  0  0
  -15.0775   -9.8195   38.9722 N   0  0  0  0  0  0  0  0  0  0  0  0
  -15.3008  -11.0452   38.4691 N   0  0  0  0  0  0  0  0  0  0  0  0
  -15.7945  -17.0829   35.9958 N   0  0  0  0  0  0  0  0  0  0  0  0
  -16.6396  -18.1300   35.5117 C   0  0  0  0  0  0  0  0  0  0  0  0
  -17.8078  -18.3262   35.6706 O   0  0  0  0  0  0  0  0  0  0  0  0
  -15.8294  -19.1476   34.7775 C   0  0  0  0  0  0  0  0  0  0  0  0
  -16.2860  -20.3068   34.1723 C   0  0  0  0  0  0  0  0  0  0  0  0
  -15.1729  -20.9840   33.7463 N   0  0  0  0  0  0  0  0  0  0  0  0
  -15.0524  -22.1996   33.0917 C   0  0  0  0  0  0  0  0  0  0  0  0
  -13.8337  -22.6772   32.8042 C   0  0  0  0  0  0  0  0  0  0  0  0
  -12.7053  -21.8250   33.2460 C   0  0  0  0  0  0  0  0  0  0  0  0
  -12.7997  -20.6791   33.8505 N   0  0  0  0  0  0  0  0  0  0  0  0
  -14.0650  -20.2247   34.1072 C   0  0  0  0  0  0  0  0  0  0  0  0
  -14.4470  -19.0809   34.6540 N   0  0  0  0  0  0  0  0  0  0  0  0
  -14.9631  -14.9766   38.5141 H   0  0  0  0  0  0  0  0  0  0  0  0
  -13.9937  -15.4599   37.0978 H   0  0  0  0  0  0  0  0  0  0  0  0
  -14.5207  -16.6701   38.2673 H   0  0  0  0  0  0  0  0  0  0  0  0
  -16.8635  -16.3493   37.5705 H   0  0  0  0  0  0  0  0  0  0  0  0
  -15.8602  -14.4779   35.4097 H   0  0  0  0  0  0  0  0  0  0  0  0
  -17.5079  -14.7447   35.6868 H   0  0  0  0  0  0  0  0  0  0  0  0
  -17.3960  -14.5805   38.4120 H   0  0  0  0  0  0  0  0  0  0  0  0
  -17.8648  -12.9432   38.4043 H   0  0  0  0  0  0  0  0  0  0  0  0
  -18.5170  -13.8723   37.1228 H   0  0  0  0  0  0  0  0  0  0  0  0
  -17.3569   -9.0482   36.8205 H   0  0  0  0  0  0  0  0  0  0  0  0
  -15.8398   -7.8284   38.7858 H   0  0  0  0  0  0  0  0  0  0  0  0
  -14.3780   -9.7289   39.7020 H   0  0  0  0  0  0  0  0  0  0  0  0
  -14.8287  -17.2845   35.7275 H   0  0  0  0  0  0  0  0  0  0  0  0
  -17.2827  -20.7090   34.0581 H   0  0  0  0  0  0  0  0  0  0  0  0
  -15.9628  -22.7304   32.8408 H   0  0  0  0  0  0  0  0  0  0  0  0
  -13.6359  -23.6184   32.3146 H   0  0  0  0  0  0  0  0  0  0  0  0
  -11.7058  -22.2292   33.0197 H   0  0  0  0  0  0  0  0  0  0  0  0
  1  2  1  0
  2  3  1  0
  3  4  1  0
  4  5  1  0
  4  6  1  0
  6  7  2  0
  6  8  1  0
  8  9  1  0
  9 10  2  0
 10 11  1  0
 11 12  1  0
  2 13  1  0
 13 14  1  0
 14 15  2  0
 14 16  1  0
 16 17  2  0
 17 18  1  0
 18 19  1  0
 19 20  2  0
 20 21  1  0
 21 22  2  0
 22 23  1  0
 23 24  2  0
 12  8  2  0
 24 16  1  0
 23 18  1  0
  1 25  1  0
  1 26  1  0
  1 27  1  0
  2 28  1  0
  3 29  1  0
  3 30  1  0
  5 31  1  0
  5 32  1  0
  5 33  1  0
  9 34  1  0
 10 35  1  0
 11 36  1  0
 13 37  1  0
 17 38  1  0
 19 39  1  0
 20 40  1  0
 21 41  1  0
M  END
>  <Energy>  (889) 
155.60750465719187

>  <compound_id>  (889) 
45306

>  <target_id>  (889) 
1

>  <reference_id>  (889) 
107

>  <inspiration_ids>  (889) 
[107, 7]

>  <energy_score>  (889) 
30.992564666794237

>  <distance_score>  (889) 
7.529602196181939

>  <path>  (889) 
/opt/xchem-fragalysis-2/maxwin/BulkDock/SCRATCH/511022/C45306-P107/C45306-P107.minimised.mol

>  <scratch_subdir>  (889) 
/opt/xchem-fragalysis-2/maxwin/BulkDock/SCRATCH/511022/C45306-P107

>  <fragmenstein_runtime>  (889) 
18.862514972686768

>  <fragmenstein_outcome>  (889) 
too moved

>  <fragmenstein_mode>  (889) 
expansion

>  <fragmenstein_error>  (889) 


$$$$
C45306-P7
     RDKit          3D

 41 43  0  0  0  0  0  0  0  0999 V2000
  -16.0327   -9.2647   35.7698 C   0  0  0  0  0  0  0  0  0  0  0  0
  -14.8527   -9.8598   35.0108 C   0  0  0  0  0  0  0  0  0  0  0  0
  -13.4659   -9.4894   35.6567 C   0  0  0  0  0  0  0  0  0  0  0  0
  -13.2000   -7.8375   36.2213 N   0  0  0  0  0  0  0  0  0  0  0  0
  -13.1073   -8.8591   37.6622 C   0  0  0  0  0  0  0  0  0  0  0  0
  -11.7820   -6.5727   35.6073 C   0  0  0  0  0  0  0  0  0  0  0  0
  -10.8649   -6.7375   34.8639 O   0  0  0  0  0  0  0  0  0  0  0  0
  -11.9331   -4.8424   36.1344 C   0  0  0  0  0  0  0  0  0  0  0  0
  -13.0991   -4.1593   36.7281 C   0  0  0  0  0  0  0  0  0  0  0  0
  -12.6861   -2.8899   37.0410 C   0  0  0  0  0  0  0  0  0  0  0  0
  -11.3775   -2.8442   36.6906 N   0  0  0  0  0  0  0  0  0  0  0  0
  -10.8893   -4.0009   36.2258 N   0  0  0  0  0  0  0  0  0  0  0  0
  -14.9795  -11.3509   34.8310 N   0  0  0  0  0  0  0  0  0  0  0  0
  -15.8844  -12.3035   35.4290 C   0  0  0  0  0  0  0  0  0  0  0  0
  -16.8172  -12.1402   36.1616 O   0  0  0  0  0  0  0  0  0  0  0  0
  -15.4996  -13.7359   35.1377 C   0  0  0  0  0  0  0  0  0  0  0  0
  -16.1399  -14.8692   35.6379 C   0  0  0  0  0  0  0  0  0  0  0  0
  -15.3536  -15.9503   35.3192 N   0  0  0  0  0  0  0  0  0  0  0  0
  -15.4828  -17.3030   35.6327 C   0  0  0  0  0  0  0  0  0  0  0  0
  -14.5017  -18.1530   35.2971 C   0  0  0  0  0  0  0  0  0  0  0  0
  -13.3054  -17.5121   34.6947 C   0  0  0  0  0  0  0  0  0  0  0  0
  -13.2117  -16.2665   34.3430 N   0  0  0  0  0  0  0  0  0  0  0  0
  -14.2802  -15.4639   34.5802 C   0  0  0  0  0  0  0  0  0  0  0  0
  -14.3342  -14.1417   34.4902 N   0  0  0  0  0  0  0  0  0  0  0  0
  -15.9559   -8.1754   35.8343 H   0  0  0  0  0  0  0  0  0  0  0  0
  -16.9754   -9.4956   35.2630 H   0  0  0  0  0  0  0  0  0  0  0  0
  -16.1011   -9.6607   36.7874 H   0  0  0  0  0  0  0  0  0  0  0  0
  -14.8720   -9.4617   33.9929 H   0  0  0  0  0  0  0  0  0  0  0  0
  -13.2343  -10.3355   36.3231 H   0  0  0  0  0  0  0  0  0  0  0  0
  -12.6926   -9.6736   34.9123 H   0  0  0  0  0  0  0  0  0  0  0  0
  -14.1297   -9.2407   37.8086 H   0  0  0  0  0  0  0  0  0  0  0  0
  -12.3786   -9.6724   37.7822 H   0  0  0  0  0  0  0  0  0  0  0  0
  -13.0254   -8.2057   38.5402 H   0  0  0  0  0  0  0  0  0  0  0  0
  -14.0894   -4.5769   36.8603 H   0  0  0  0  0  0  0  0  0  0  0  0
  -13.2023   -2.0404   37.4643 H   0  0  0  0  0  0  0  0  0  0  0  0
  -10.7423   -2.0577   36.7684 H   0  0  0  0  0  0  0  0  0  0  0  0
  -14.2518  -11.8557   34.3275 H   0  0  0  0  0  0  0  0  0  0  0  0
  -17.0399  -14.9669   36.2289 H   0  0  0  0  0  0  0  0  0  0  0  0
  -16.3878  -17.6114   36.1412 H   0  0  0  0  0  0  0  0  0  0  0  0
  -14.5034  -19.2154   35.4704 H   0  0  0  0  0  0  0  0  0  0  0  0
  -12.4417  -18.1840   34.5575 H   0  0  0  0  0  0  0  0  0  0  0  0
  1  2  1  0
  2  3  1  0
  3  4  1  0
  4  5  1  0
  4  6  1  0
  6  7  2  0
  6  8  1  0
  8  9  1  0
  9 10  2  0
 10 11  1  0
 11 12  1  0
  2 13  1  0
 13 14  1  0
 14 15  2  0
 14 16  1  0
 16 17  2  0
 17 18  1  0
 18 19  1  0
 19 20  2  0
 20 21  1  0
 21 22  2  0
 22 23  1  0
 23 24  2  0
 12  8  2  0
 24 16  1  0
 23 18  1  0
  1 25  1  0
  1 26  1  0
  1 27  1  0
  2 28  1  0
  3 29  1  0
  3 30  1  0
  5 31  1  0
  5 32  1  0
  5 33  1  0
  9 34  1  0
 10 35  1  0
 11 36  1  0
 13 37  1  0
 17 38  1  0
 19 39  1  0
 20 40  1  0
 21 41  1  0
M  END
>  <Energy>  (890) 
380.84026655377966

>  <compound_id>  (890) 
45306

>  <target_id>  (890) 
1

>  <reference_id>  (890) 
7

>  <inspiration_ids>  (890) 
[107, 7]

>  <energy_score>  (890) 
256.22532656337694

>  <distance_score>  (890) 
7.962001429681883

>  <path>  (890) 
/opt/xchem-fragalysis-2/maxwin/BulkDock/SCRATCH/511022/C45306-P7/C45306-P7.minimised.mol

>  <scratch_subdir>  (890) 
/opt/xchem-fragalysis-2/maxwin/BulkDock/SCRATCH/511022/C45306-P7

>  <fragmenstein_runtime>  (890) 
18.326233625411987

>  <fragmenstein_outcome>  (890) 
too moved

>  <fragmenstein_mode>  (890) 
expansion

>  <fragmenstein_error>  (890) 


$$$$
C45292-P107
     RDKit          3D

 35 38  0  0  0  0  0  0  0  0999 V2000
  -16.8027  -11.3056   36.0845 O   0  0  0  0  0  0  0  0  0  0  0  0
  -15.9125  -11.8222   36.6958 C   0  0  0  0  0  0  0  0  0  0  0  0
  -15.0594  -12.9329   36.3561 N   0  0  0  0  0  0  0  0  0  0  0  0
  -14.9477  -13.7071   35.1364 C   0  0  0  0  0  0  0  0  0  0  0  0
  -14.7369  -15.1975   35.3422 C   0  0  0  0  0  0  0  0  0  0  0  0
  -13.7105  -15.9226   34.5058 C   0  0  0  0  0  0  0  0  0  0  0  0
  -13.6016  -17.2058   34.3342 N   0  0  0  0  0  0  0  0  0  0  0  0
  -14.5402  -17.9821   34.9280 C   0  0  0  0  0  0  0  0  0  0  0  0
  -14.8415  -19.2336   34.6569 N   0  0  0  0  0  0  0  0  0  0  0  0
  -15.9657  -19.5081   35.3868 C   0  0  0  0  0  0  0  0  0  0  0  0
  -16.3442  -18.4184   36.1339 C   0  0  0  0  0  0  0  0  0  0  0  0
  -15.4796  -17.4173   35.7757 N   0  0  0  0  0  0  0  0  0  0  0  0
  -15.5584  -16.0427   36.0006 C   0  0  0  0  0  0  0  0  0  0  0  0
  -15.6891  -11.2957   38.1261 C   0  0  0  0  0  0  0  0  0  0  0  0
  -15.4566   -9.7095   38.3020 C   0  0  0  0  0  0  0  0  0  0  0  0
  -16.4320   -8.7174   38.0366 C   0  0  0  0  0  0  0  0  0  0  0  0
  -15.9192   -7.5552   38.5683 C   0  0  0  0  0  0  0  0  0  0  0  0
  -14.7413   -7.9087   39.1580 N   0  0  0  0  0  0  0  0  0  0  0  0
  -14.3897   -9.1876   38.9244 N   0  0  0  0  0  0  0  0  0  0  0  0
  -15.2047  -12.2012   39.2556 C   0  0  0  0  0  0  0  0  0  0  0  0
  -16.6577  -11.8699   39.1741 C   0  0  0  0  0  0  0  0  0  0  0  0
  -14.3555  -13.0439   37.0810 H   0  0  0  0  0  0  0  0  0  0  0  0
  -15.8540  -13.5390   34.5440 H   0  0  0  0  0  0  0  0  0  0  0  0
  -14.1182  -13.2736   34.5723 H   0  0  0  0  0  0  0  0  0  0  0  0
  -12.9921  -15.2828   33.9743 H   0  0  0  0  0  0  0  0  0  0  0  0
  -16.4403  -20.4807   35.3404 H   0  0  0  0  0  0  0  0  0  0  0  0
  -17.1779  -18.2492   36.7994 H   0  0  0  0  0  0  0  0  0  0  0  0
  -16.4127  -15.6928   36.5695 H   0  0  0  0  0  0  0  0  0  0  0  0
  -17.3947   -8.8551   37.5636 H   0  0  0  0  0  0  0  0  0  0  0  0
  -16.3082   -6.5491   38.6306 H   0  0  0  0  0  0  0  0  0  0  0  0
  -14.0963   -7.3230   39.6803 H   0  0  0  0  0  0  0  0  0  0  0  0
  -14.6167  -11.7453   40.0452 H   0  0  0  0  0  0  0  0  0  0  0  0
  -14.9365  -13.2304   39.0612 H   0  0  0  0  0  0  0  0  0  0  0  0
  -17.3450  -12.6457   38.8548 H   0  0  0  0  0  0  0  0  0  0  0  0
  -17.0680  -11.2020   39.9227 H   0  0  0  0  0  0  0  0  0  0  0  0
  1  2  2  0
  2  3  1  0
  3  4  1  0
  4  5  1  0
  5  6  1  0
  6  7  2  0
  7  8  1  0
  8  9  2  0
  9 10  1  0
 10 11  2  0
 11 12  1  0
 12 13  1  0
  2 14  1  0
 14 15  1  0
 15 16  1  0
 16 17  2  0
 17 18  1  0
 18 19  1  0
 14 20  1  0
 20 21  1  0
 13  5  2  0
 21 14  1  0
 12  8  1  0
 19 15  2  0
  3 22  1  0
  4 23  1  0
  4 24  1  0
  6 25  1  0
 10 26  1  0
 11 27  1  0
 13 28  1  0
 16 29  1  0
 17 30  1  0
 18 31  1  0
 20 32  1  0
 20 33  1  0
 21 34  1  0
 21 35  1  0
M  END
>  <Energy>  (891) 
37.559759089035673

>  <compound_id>  (891) 
45292

>  <target_id>  (891) 
1

>  <reference_id>  (891) 
107

>  <inspiration_ids>  (891) 
[107, 7]

>  <energy_score>  (891) 
-18.509307527509606

>  <distance_score>  (891) 
9.280591450576981

>  <path>  (891) 
/opt/xchem-fragalysis-2/maxwin/BulkDock/SCRATCH/511022/C45292-P107/C45292-P107.minimised.mol

>  <scratch_subdir>  (891) 
/opt/xchem-fragalysis-2/maxwin/BulkDock/SCRATCH/511022/C45292-P107

>  <fragmenstein_runtime>  (891) 
21.866620302200317

>  <fragmenstein_outcome>  (891) 
too moved

>  <fragmenstein_mode>  (891) 
expansion

>  <fragmenstein_error>  (891) 


$$$$
C45292-P7
     RDKit          3D

 35 38  0  0  0  0  0  0  0  0999 V2000
  -12.3107  -10.2157   34.8135 O   0  0  0  0  0  0  0  0  0  0  0  0
  -13.3561   -9.8541   35.2387 C   0  0  0  0  0  0  0  0  0  0  0  0
  -14.6899  -10.4721   35.1485 N   0  0  0  0  0  0  0  0  0  0  0  0
  -15.1623  -11.6972   34.4055 C   0  0  0  0  0  0  0  0  0  0  0  0
  -15.1570  -13.1578   34.9131 C   0  0  0  0  0  0  0  0  0  0  0  0
  -14.2563  -14.1535   34.2262 C   0  0  0  0  0  0  0  0  0  0  0  0
  -14.0927  -15.4286   34.4139 N   0  0  0  0  0  0  0  0  0  0  0  0
  -14.9860  -16.0223   35.2341 C   0  0  0  0  0  0  0  0  0  0  0  0
  -15.1259  -17.2987   35.5157 N   0  0  0  0  0  0  0  0  0  0  0  0
  -16.2094  -17.3667   36.3449 C   0  0  0  0  0  0  0  0  0  0  0  0
  -16.7409  -16.1151   36.5655 C   0  0  0  0  0  0  0  0  0  0  0  0
  -15.9645  -15.2433   35.8449 N   0  0  0  0  0  0  0  0  0  0  0  0
  -16.0513  -13.8401   35.6724 C   0  0  0  0  0  0  0  0  0  0  0  0
  -13.2794   -8.2682   35.9869 C   0  0  0  0  0  0  0  0  0  0  0  0
  -11.7315   -6.6847   35.6076 C   0  0  0  0  0  0  0  0  0  0  0  0
  -12.2403   -4.9790   36.0704 C   0  0  0  0  0  0  0  0  0  0  0  0
  -11.1170   -4.2483   36.1717 C   0  0  0  0  0  0  0  0  0  0  0  0
  -10.2944   -5.2969   35.9198 N   0  0  0  0  0  0  0  0  0  0  0  0
  -10.7190   -6.2022   34.9640 N   0  0  0  0  0  0  0  0  0  0  0  0
  -13.7807   -8.6067   37.5242 C   0  0  0  0  0  0  0  0  0  0  0  0
  -14.6777   -7.7642   36.7034 C   0  0  0  0  0  0  0  0  0  0  0  0
  -15.3690   -9.8519   35.5525 H   0  0  0  0  0  0  0  0  0  0  0  0
  -14.6529  -11.6603   33.4429 H   0  0  0  0  0  0  0  0  0  0  0  0
  -16.2106  -11.4677   34.1903 H   0  0  0  0  0  0  0  0  0  0  0  0
  -13.6235  -13.7358   33.4652 H   0  0  0  0  0  0  0  0  0  0  0  0
  -16.5609  -18.3136   36.7350 H   0  0  0  0  0  0  0  0  0  0  0  0
  -17.5985  -15.7851   37.1331 H   0  0  0  0  0  0  0  0  0  0  0  0
  -16.8873  -13.3575   36.1637 H   0  0  0  0  0  0  0  0  0  0  0  0
  -13.2364   -4.7577   36.4651 H   0  0  0  0  0  0  0  0  0  0  0  0
  -10.8419   -3.2847   36.5710 H   0  0  0  0  0  0  0  0  0  0  0  0
   -9.2916   -5.3376   36.0709 H   0  0  0  0  0  0  0  0  0  0  0  0
  -14.0822   -9.6331   37.7306 H   0  0  0  0  0  0  0  0  0  0  0  0
  -13.3472   -8.1828   38.4208 H   0  0  0  0  0  0  0  0  0  0  0  0
  -15.6253   -8.1590   36.3641 H   0  0  0  0  0  0  0  0  0  0  0  0
  -14.7982   -6.7260   37.0060 H   0  0  0  0  0  0  0  0  0  0  0  0
  1  2  2  0
  2  3  1  0
  3  4  1  0
  4  5  1  0
  5  6  1  0
  6  7  2  0
  7  8  1  0
  8  9  2  0
  9 10  1  0
 10 11  2  0
 11 12  1  0
 12 13  1  0
  2 14  1  0
 14 15  1  0
 15 16  1  0
 16 17  2  0
 17 18  1  0
 18 19  1  0
 14 20  1  0
 20 21  1  0
 13  5  2  0
 21 14  1  0
 12  8  1  0
 19 15  2  0
  3 22  1  0
  4 23  1  0
  4 24  1  0
  6 25  1  0
 10 26  1  0
 11 27  1  0
 13 28  1  0
 16 29  1  0
 17 30  1  0
 18 31  1  0
 20 32  1  0
 20 33  1  0
 21 34  1  0
 21 35  1  0
M  END
>  <Energy>  (892) 
277.01018086193881

>  <compound_id>  (892) 
45292

>  <target_id>  (892) 
1

>  <reference_id>  (892) 
7

>  <inspiration_ids>  (892) 
[107, 7]

>  <energy_score>  (892) 
220.94111424539733

>  <distance_score>  (892) 
9.30350250374225

>  <path>  (892) 
/opt/xchem-fragalysis-2/maxwin/BulkDock/SCRATCH/511022/C45292-P7/C45292-P7.minimised.mol

>  <scratch_subdir>  (892) 
/opt/xchem-fragalysis-2/maxwin/BulkDock/SCRATCH/511022/C45292-P7

>  <fragmenstein_runtime>  (892) 
12.289719820022583

>  <fragmenstein_outcome>  (892) 
too moved

>  <fragmenstein_mode>  (892) 
expansion

>  <fragmenstein_error>  (892) 


$$$$
C45307-P107
     RDKit          3D

 42 45  0  0  0  0  0  0  0  0999 V2000
  -17.2859  -11.6711   37.5487 O   0  0  0  0  0  0  0  0  0  0  0  0
  -16.0963  -11.7852   37.6172 C   0  0  0  0  0  0  0  0  0  0  0  0
  -15.2366  -12.8864   37.2613 N   0  0  0  0  0  0  0  0  0  0  0  0
  -15.5339  -14.1689   36.6167 C   0  0  0  0  0  0  0  0  0  0  0  0
  -15.2519  -15.4321   37.4945 C   0  0  0  0  0  0  0  0  0  0  0  0
  -14.9877  -16.8198   36.7428 N   0  0  0  0  0  0  0  0  0  0  0  0
  -14.4808  -17.0898   35.4297 C   0  0  0  0  0  0  0  0  0  0  0  0
  -14.2097  -16.3414   34.5301 O   0  0  0  0  0  0  0  0  0  0  0  0
  -14.2920  -18.5328   35.1172 C   0  0  0  0  0  0  0  0  0  0  0  0
  -15.2266  -19.3857   34.5430 C   0  0  0  0  0  0  0  0  0  0  0  0
  -14.5157  -20.4371   34.0145 N   0  0  0  0  0  0  0  0  0  0  0  0
  -14.9432  -21.5322   33.2739 C   0  0  0  0  0  0  0  0  0  0  0  0
  -14.0327  -22.3804   32.7778 C   0  0  0  0  0  0  0  0  0  0  0  0
  -12.6216  -22.0421   33.0665 C   0  0  0  0  0  0  0  0  0  0  0  0
  -12.2128  -21.0133   33.7386 N   0  0  0  0  0  0  0  0  0  0  0  0
  -13.1680  -20.1953   34.2676 C   0  0  0  0  0  0  0  0  0  0  0  0
  -13.0301  -19.0906   34.9734 N   0  0  0  0  0  0  0  0  0  0  0  0
  -16.5434  -16.8476   36.7415 C   0  0  0  0  0  0  0  0  0  0  0  0
  -17.3944  -17.2297   37.9434 C   0  0  0  0  0  0  0  0  0  0  0  0
  -17.2014  -18.2191   36.8544 C   0  0  0  0  0  0  0  0  0  0  0  0
  -15.3380  -10.5881   38.1906 C   0  0  0  0  0  0  0  0  0  0  0  0
  -14.0230  -10.4961   38.7424 C   0  0  0  0  0  0  0  0  0  0  0  0
  -13.8913   -9.2195   39.2383 C   0  0  0  0  0  0  0  0  0  0  0  0
  -15.0680   -8.6016   38.9646 N   0  0  0  0  0  0  0  0  0  0  0  0
  -15.9262   -9.3676   38.2791 N   0  0  0  0  0  0  0  0  0  0  0  0
  -14.2632  -12.5995   37.3759 H   0  0  0  0  0  0  0  0  0  0  0  0
  -16.5836  -14.1386   36.3118 H   0  0  0  0  0  0  0  0  0  0  0  0
  -14.9213  -14.1930   35.7114 H   0  0  0  0  0  0  0  0  0  0  0  0
  -15.8610  -15.4867   38.4062 H   0  0  0  0  0  0  0  0  0  0  0  0
  -14.2566  -15.2702   37.9084 H   0  0  0  0  0  0  0  0  0  0  0  0
  -16.2874  -19.2827   34.3733 H   0  0  0  0  0  0  0  0  0  0  0  0
  -16.0067  -21.6612   33.1188 H   0  0  0  0  0  0  0  0  0  0  0  0
  -14.2491  -23.2560   32.1951 H   0  0  0  0  0  0  0  0  0  0  0  0
  -11.8761  -22.7374   32.6467 H   0  0  0  0  0  0  0  0  0  0  0  0
  -16.9694  -16.2590   35.9360 H   0  0  0  0  0  0  0  0  0  0  0  0
  -18.3631  -16.7504   38.0347 H   0  0  0  0  0  0  0  0  0  0  0  0
  -16.9128  -17.4425   38.8908 H   0  0  0  0  0  0  0  0  0  0  0  0
  -18.0458  -18.4262   36.2070 H   0  0  0  0  0  0  0  0  0  0  0  0
  -16.5907  -19.0833   37.0883 H   0  0  0  0  0  0  0  0  0  0  0  0
  -13.2832  -11.2769   38.8318 H   0  0  0  0  0  0  0  0  0  0  0  0
  -13.0904   -8.7249   39.7700 H   0  0  0  0  0  0  0  0  0  0  0  0
  -15.3558   -7.6595   39.2093 H   0  0  0  0  0  0  0  0  0  0  0  0
  1  2  2  0
  2  3  1  0
  3  4  1  0
  4  5  1  0
  5  6  1  0
  6  7  1  0
  7  8  2  0
  7  9  1  0
  9 10  2  0
 10 11  1  0
 11 12  1  0
 12 13  2  0
 13 14  1  0
 14 15  2  0
 15 16  1  0
 16 17  2  0
  6 18  1  0
 18 19  1  0
 19 20  1  0
  2 21  1  0
 21 22  1  0
 22 23  2  0
 23 24  1  0
 24 25  1  0
 17  9  1  0
 20 18  1  0
 25 21  2  0
 16 11  1  0
  3 26  1  0
  4 27  1  0
  4 28  1  0
  5 29  1  0
  5 30  1  0
 10 31  1  0
 12 32  1  0
 13 33  1  0
 14 34  1  0
 18 35  1  0
 19 36  1  0
 19 37  1  0
 20 38  1  0
 20 39  1  0
 22 40  1  0
 23 41  1  0
 24 42  1  0
M  END
>  <Energy>  (893) 
193.90184342252101

>  <compound_id>  (893) 
45307

>  <target_id>  (893) 
1

>  <reference_id>  (893) 
107

>  <inspiration_ids>  (893) 
[107, 7]

>  <energy_score>  (893) 
49.74466286985273

>  <distance_score>  (893) 
7.446608085370953

>  <path>  (893) 
/opt/xchem-fragalysis-2/maxwin/BulkDock/SCRATCH/511022/C45307-P107/C45307-P107.minimised.mol

>  <scratch_subdir>  (893) 
/opt/xchem-fragalysis-2/maxwin/BulkDock/SCRATCH/511022/C45307-P107

>  <fragmenstein_runtime>  (893) 
21.900886058807373

>  <fragmenstein_outcome>  (893) 
too moved

>  <fragmenstein_mode>  (893) 
expansion

>  <fragmenstein_error>  (893) 


$$$$
C45307-P7
     RDKit          3D

 42 45  0  0  0  0  0  0  0  0999 V2000
  -10.1514   -9.9458   32.5711 O   0  0  0  0  0  0  0  0  0  0  0  0
  -10.5849   -9.1650   33.3602 C   0  0  0  0  0  0  0  0  0  0  0  0
  -11.7504   -9.4338   34.5897 N   0  0  0  0  0  0  0  0  0  0  0  0
  -12.5615  -10.6294   34.9051 C   0  0  0  0  0  0  0  0  0  0  0  0
  -13.9604  -10.5142   35.6281 C   0  0  0  0  0  0  0  0  0  0  0  0
  -14.4775  -12.0569   35.6720 N   0  0  0  0  0  0  0  0  0  0  0  0
  -15.1710  -12.8465   34.6840 C   0  0  0  0  0  0  0  0  0  0  0  0
  -15.6204  -12.5356   33.6142 O   0  0  0  0  0  0  0  0  0  0  0  0
  -15.2263  -14.3056   35.0500 C   0  0  0  0  0  0  0  0  0  0  0  0
  -16.1805  -15.0897   35.6751 C   0  0  0  0  0  0  0  0  0  0  0  0
  -15.7466  -16.4040   35.5685 N   0  0  0  0  0  0  0  0  0  0  0  0
  -16.4114  -17.5987   35.8318 C   0  0  0  0  0  0  0  0  0  0  0  0
  -15.8296  -18.7665   35.5208 C   0  0  0  0  0  0  0  0  0  0  0  0
  -14.4473  -18.6608   34.9815 C   0  0  0  0  0  0  0  0  0  0  0  0
  -13.8280  -17.5557   34.7031 N   0  0  0  0  0  0  0  0  0  0  0  0
  -14.4929  -16.3925   34.9673 C   0  0  0  0  0  0  0  0  0  0  0  0
  -14.1428  -15.1477   34.7069 N   0  0  0  0  0  0  0  0  0  0  0  0
  -15.4990  -11.4378   36.6938 C   0  0  0  0  0  0  0  0  0  0  0  0
  -16.2137  -12.3003   37.7158 C   0  0  0  0  0  0  0  0  0  0  0  0
  -15.1847  -11.3207   38.1716 C   0  0  0  0  0  0  0  0  0  0  0  0
   -9.7626   -7.6024   33.2480 C   0  0  0  0  0  0  0  0  0  0  0  0
   -9.7508   -6.6373   34.2000 C   0  0  0  0  0  0  0  0  0  0  0  0
   -8.3603   -6.3852   34.5634 C   0  0  0  0  0  0  0  0  0  0  0  0
   -7.7464   -6.7197   33.4468 N   0  0  0  0  0  0  0  0  0  0  0  0
   -8.6195   -7.2429   32.6454 N   0  0  0  0  0  0  0  0  0  0  0  0
  -11.9744   -8.5714   35.0298 H   0  0  0  0  0  0  0  0  0  0  0  0
  -12.9002  -11.0568   33.9874 H   0  0  0  0  0  0  0  0  0  0  0  0
  -11.9786  -11.2067   35.6102 H   0  0  0  0  0  0  0  0  0  0  0  0
  -14.6308   -9.9174   34.9962 H   0  0  0  0  0  0  0  0  0  0  0  0
  -13.7644  -10.0674   36.6101 H   0  0  0  0  0  0  0  0  0  0  0  0
  -17.1571  -14.8550   36.0728 H   0  0  0  0  0  0  0  0  0  0  0  0
  -17.4132  -17.5245   36.2372 H   0  0  0  0  0  0  0  0  0  0  0  0
  -16.2914  -19.7346   35.6512 H   0  0  0  0  0  0  0  0  0  0  0  0
  -13.9377  -19.6211   34.7953 H   0  0  0  0  0  0  0  0  0  0  0  0
  -16.1966  -10.7381   36.2222 H   0  0  0  0  0  0  0  0  0  0  0  0
  -15.9874  -13.3482   37.8338 H   0  0  0  0  0  0  0  0  0  0  0  0
  -17.2539  -12.0711   37.9270 H   0  0  0  0  0  0  0  0  0  0  0  0
  -14.2359  -11.7031   38.5325 H   0  0  0  0  0  0  0  0  0  0  0  0
  -15.5209  -10.4320   38.6933 H   0  0  0  0  0  0  0  0  0  0  0  0
  -10.6040   -6.3163   34.8246 H   0  0  0  0  0  0  0  0  0  0  0  0
   -7.8657   -5.9133   35.3883 H   0  0  0  0  0  0  0  0  0  0  0  0
   -6.7562   -6.6936   33.2220 H   0  0  0  0  0  0  0  0  0  0  0  0
  1  2  2  0
  2  3  1  0
  3  4  1  0
  4  5  1  0
  5  6  1  0
  6  7  1  0
  7  8  2  0
  7  9  1  0
  9 10  2  0
 10 11  1  0
 11 12  1  0
 12 13  2  0
 13 14  1  0
 14 15  2  0
 15 16  1  0
 16 17  2  0
  6 18  1  0
 18 19  1  0
 19 20  1  0
  2 21  1  0
 21 22  1  0
 22 23  2  0
 23 24  1  0
 24 25  1  0
 17  9  1  0
 20 18  1  0
 25 21  2  0
 16 11  1  0
  3 26  1  0
  4 27  1  0
  4 28  1  0
  5 29  1  0
  5 30  1  0
 10 31  1  0
 12 32  1  0
 13 33  1  0
 14 34  1  0
 18 35  1  0
 19 36  1  0
 19 37  1  0
 20 38  1  0
 20 39  1  0
 22 40  1  0
 23 41  1  0
 24 42  1  0
M  END
>  <Energy>  (894) 
294.1197692175096

>  <compound_id>  (894) 
45307

>  <target_id>  (894) 
1

>  <reference_id>  (894) 
7

>  <inspiration_ids>  (894) 
[107, 7]

>  <energy_score>  (894) 
149.96258866484567

>  <distance_score>  (894) 
8.788736567926003

>  <path>  (894) 
/opt/xchem-fragalysis-2/maxwin/BulkDock/SCRATCH/511022/C45307-P7/C45307-P7.minimised.mol

>  <scratch_subdir>  (894) 
/opt/xchem-fragalysis-2/maxwin/BulkDock/SCRATCH/511022/C45307-P7

>  <fragmenstein_runtime>  (894) 
16.45015573501587

>  <fragmenstein_outcome>  (894) 
too moved

>  <fragmenstein_mode>  (894) 
expansion

>  <fragmenstein_error>  (894) 


$$$$
C45302-P107
     RDKit          3D

 42 45  0  0  0  0  0  0  0  0999 V2000
  -15.1719  -12.4215   33.9348 O   0  0  0  0  0  0  0  0  0  0  0  0
  -14.7752  -12.8236   34.9864 C   0  0  0  0  0  0  0  0  0  0  0  0
  -14.3875  -12.1183   36.1707 N   0  0  0  0  0  0  0  0  0  0  0  0
  -14.2601  -10.6798   36.4402 C   0  0  0  0  0  0  0  0  0  0  0  0
  -12.6781   -9.9208   36.1230 C   0  0  0  0  0  0  0  0  0  0  0  0
  -12.0875   -8.0127   35.7167 N   0  0  0  0  0  0  0  0  0  0  0  0
  -13.1052   -6.5543   35.3489 C   0  0  0  0  0  0  0  0  0  0  0  0
  -14.2827   -6.4554   35.1674 O   0  0  0  0  0  0  0  0  0  0  0  0
  -12.4454   -5.1073   35.4043 C   0  0  0  0  0  0  0  0  0  0  0  0
  -11.8599   -3.9030   35.0142 C   0  0  0  0  0  0  0  0  0  0  0  0
  -11.4515   -3.1375   36.1101 C   0  0  0  0  0  0  0  0  0  0  0  0
  -12.2824   -3.5911   37.0563 N   0  0  0  0  0  0  0  0  0  0  0  0
  -13.0479   -4.5821   36.5995 N   0  0  0  0  0  0  0  0  0  0  0  0
  -11.1755   -9.1809   34.4807 C   0  0  0  0  0  0  0  0  0  0  0  0
  -10.2666   -9.1894   33.4001 C   0  0  0  0  0  0  0  0  0  0  0  0
  -10.0019   -7.8207   33.4081 C   0  0  0  0  0  0  0  0  0  0  0  0
  -14.5987  -14.3359   35.1583 C   0  0  0  0  0  0  0  0  0  0  0  0
  -13.7645  -15.1870   34.2315 C   0  0  0  0  0  0  0  0  0  0  0  0
  -13.6330  -16.4813   34.2255 N   0  0  0  0  0  0  0  0  0  0  0  0
  -14.3962  -17.1642   35.1096 C   0  0  0  0  0  0  0  0  0  0  0  0
  -14.6266  -18.4585   35.1677 N   0  0  0  0  0  0  0  0  0  0  0  0
  -15.5539  -18.6215   36.1589 C   0  0  0  0  0  0  0  0  0  0  0  0
  -15.8815  -17.4168   36.7324 C   0  0  0  0  0  0  0  0  0  0  0  0
  -15.1874  -16.4760   36.0197 N   0  0  0  0  0  0  0  0  0  0  0  0
  -15.2749  -15.0823   36.0540 C   0  0  0  0  0  0  0  0  0  0  0  0
  -14.0219  -12.7805   36.8451 H   0  0  0  0  0  0  0  0  0  0  0  0
  -14.4261  -10.5782   37.5221 H   0  0  0  0  0  0  0  0  0  0  0  0
  -15.1607  -10.3098   35.9814 H   0  0  0  0  0  0  0  0  0  0  0  0
  -12.6386   -9.8046   37.2388 H   0  0  0  0  0  0  0  0  0  0  0  0
  -11.9135  -10.7091   36.0354 H   0  0  0  0  0  0  0  0  0  0  0  0
  -11.7035   -3.4762   34.0390 H   0  0  0  0  0  0  0  0  0  0  0  0
  -10.8900   -2.2214   36.2030 H   0  0  0  0  0  0  0  0  0  0  0  0
  -12.4473   -3.2426   37.9932 H   0  0  0  0  0  0  0  0  0  0  0  0
  -10.7060   -9.8661   35.1856 H   0  0  0  0  0  0  0  0  0  0  0  0
   -9.8433   -9.8632   32.6746 H   0  0  0  0  0  0  0  0  0  0  0  0
  -11.0973   -9.6190   32.9328 H   0  0  0  0  0  0  0  0  0  0  0  0
  -10.2797   -7.2701   32.5223 H   0  0  0  0  0  0  0  0  0  0  0  0
   -9.1198   -7.3039   33.7595 H   0  0  0  0  0  0  0  0  0  0  0  0
  -13.1879  -14.6333   33.4822 H   0  0  0  0  0  0  0  0  0  0  0  0
  -15.9563  -19.5946   36.4061 H   0  0  0  0  0  0  0  0  0  0  0  0
  -16.5761  -17.1549   37.5169 H   0  0  0  0  0  0  0  0  0  0  0  0
  -15.9687  -14.6522   36.7653 H   0  0  0  0  0  0  0  0  0  0  0  0
  1  2  2  0
  2  3  1  0
  3  4  1  0
  4  5  1  0
  5  6  1  0
  6  7  1  0
  7  8  2  0
  7  9  1  0
  9 10  1  0
 10 11  2  0
 11 12  1  0
 12 13  1  0
  6 14  1  0
 14 15  1  0
 15 16  1  0
  2 17  1  0
 17 18  1  0
 18 19  2  0
 19 20  1  0
 20 21  2  0
 21 22  1  0
 22 23  2  0
 23 24  1  0
 24 25  1  0
 13  9  2  0
 16 14  1  0
 25 17  2  0
 24 20  1  0
  3 26  1  0
  4 27  1  0
  4 28  1  0
  5 29  1  0
  5 30  1  0
 10 31  1  0
 11 32  1  0
 12 33  1  0
 14 34  1  0
 15 35  1  0
 15 36  1  0
 16 37  1  0
 16 38  1  0
 18 39  1  0
 22 40  1  0
 23 41  1  0
 25 42  1  0
M  END
>  <Energy>  (895) 
579.0898167654957

>  <compound_id>  (895) 
45302

>  <target_id>  (895) 
1

>  <reference_id>  (895) 
107

>  <inspiration_ids>  (895) 
[107, 7]

>  <energy_score>  (895) 
461.8662297349412

>  <distance_score>  (895) 
8.304440306158162

>  <path>  (895) 
/opt/xchem-fragalysis-2/maxwin/BulkDock/SCRATCH/511022/C45302-P107/C45302-P107.minimised.mol

>  <scratch_subdir>  (895) 
/opt/xchem-fragalysis-2/maxwin/BulkDock/SCRATCH/511022/C45302-P107

>  <fragmenstein_runtime>  (895) 
16.599539279937744

>  <fragmenstein_outcome>  (895) 
too moved

>  <fragmenstein_mode>  (895) 
expansion

>  <fragmenstein_error>  (895) 


$$$$
C45302-P7
     RDKit          3D

 42 45  0  0  0  0  0  0  0  0999 V2000
  -13.1117  -15.9922   29.5804 O   0  0  0  0  0  0  0  0  0  0  0  0
  -12.3066  -16.5189   30.2293 C   0  0  0  0  0  0  0  0  0  0  0  0
  -12.0565  -15.5694   31.9261 N   0  0  0  0  0  0  0  0  0  0  0  0
  -12.9858  -14.0160   32.7929 C   0  0  0  0  0  0  0  0  0  0  0  0
  -12.8071  -12.0974   33.8646 C   0  0  0  0  0  0  0  0  0  0  0  0
  -11.7547  -10.2826   33.4782 N   0  0  0  0  0  0  0  0  0  0  0  0
  -11.0765   -9.6084   34.2791 C   0  0  0  0  0  0  0  0  0  0  0  0
  -10.7381   -9.8443   35.3588 O   0  0  0  0  0  0  0  0  0  0  0  0
  -10.4268   -7.9780   33.3688 C   0  0  0  0  0  0  0  0  0  0  0  0
   -9.0970   -7.3274   33.2700 C   0  0  0  0  0  0  0  0  0  0  0  0
   -8.7417   -6.5430   34.3235 C   0  0  0  0  0  0  0  0  0  0  0  0
  -10.0863   -6.1023   34.7846 N   0  0  0  0  0  0  0  0  0  0  0  0
  -10.9520   -6.9335   34.3305 N   0  0  0  0  0  0  0  0  0  0  0  0
  -10.3076  -11.3740   32.2204 C   0  0  0  0  0  0  0  0  0  0  0  0
   -9.0606  -10.7709   32.0369 C   0  0  0  0  0  0  0  0  0  0  0  0
   -9.8230  -10.5247   30.7442 C   0  0  0  0  0  0  0  0  0  0  0  0
  -11.6322  -18.3468   29.2136 C   0  0  0  0  0  0  0  0  0  0  0  0
  -12.5874  -19.9819   29.0342 C   0  0  0  0  0  0  0  0  0  0  0  0
  -12.7701  -21.2101   29.5594 N   0  0  0  0  0  0  0  0  0  0  0  0
  -12.1498  -21.5642   30.6547 C   0  0  0  0  0  0  0  0  0  0  0  0
  -12.5910  -21.9628   31.7946 N   0  0  0  0  0  0  0  0  0  0  0  0
  -11.7164  -21.5518   32.6936 C   0  0  0  0  0  0  0  0  0  0  0  0
  -10.7633  -20.8249   32.0335 C   0  0  0  0  0  0  0  0  0  0  0  0
  -10.9734  -20.9718   30.6871 N   0  0  0  0  0  0  0  0  0  0  0  0
  -10.8736  -20.0863   29.3948 C   0  0  0  0  0  0  0  0  0  0  0  0
  -11.3015  -16.0008   32.4117 H   0  0  0  0  0  0  0  0  0  0  0  0
  -12.7044  -14.6833   33.6350 H   0  0  0  0  0  0  0  0  0  0  0  0
  -13.9595  -14.2737   33.2616 H   0  0  0  0  0  0  0  0  0  0  0  0
  -12.9768  -12.1554   34.9727 H   0  0  0  0  0  0  0  0  0  0  0  0
  -13.8387  -11.6538   33.6786 H   0  0  0  0  0  0  0  0  0  0  0  0
   -8.3696   -7.2071   32.5180 H   0  0  0  0  0  0  0  0  0  0  0  0
   -7.8455   -6.0944   34.7434 H   0  0  0  0  0  0  0  0  0  0  0  0
  -10.3364   -5.5231   35.5881 H   0  0  0  0  0  0  0  0  0  0  0  0
   -9.7843  -12.4178   32.5450 H   0  0  0  0  0  0  0  0  0  0  0  0
   -8.1117  -11.2653   31.8071 H   0  0  0  0  0  0  0  0  0  0  0  0
   -8.4502  -11.4648   32.6979 H   0  0  0  0  0  0  0  0  0  0  0  0
   -9.0214  -10.1955   30.0922 H   0  0  0  0  0  0  0  0  0  0  0  0
  -10.5879   -9.8933   30.2550 H   0  0  0  0  0  0  0  0  0  0  0  0
  -12.4350  -20.4193   28.0406 H   0  0  0  0  0  0  0  0  0  0  0  0
  -11.9273  -21.6989   33.7439 H   0  0  0  0  0  0  0  0  0  0  0  0
  -10.0316  -20.1329   32.3952 H   0  0  0  0  0  0  0  0  0  0  0  0
  -10.6841  -20.9654   28.6909 H   0  0  0  0  0  0  0  0  0  0  0  0
  1  2  2  0
  2  3  1  0
  3  4  1  0
  4  5  1  0
  5  6  1  0
  6  7  1  0
  7  8  2  0
  7  9  1  0
  9 10  1  0
 10 11  2  0
 11 12  1  0
 12 13  1  0
  6 14  1  0
 14 15  1  0
 15 16  1  0
  2 17  1  0
 17 18  1  0
 18 19  2  0
 19 20  1  0
 20 21  2  0
 21 22  1  0
 22 23  2  0
 23 24  1  0
 24 25  1  0
 13  9  2  0
 16 14  1  0
 25 17  2  0
 24 20  1  0
  3 26  1  0
  4 27  1  0
  4 28  1  0
  5 29  1  0
  5 30  1  0
 10 31  1  0
 11 32  1  0
 12 33  1  0
 14 34  1  0
 15 35  1  0
 15 36  1  0
 16 37  1  0
 16 38  1  0
 18 39  1  0
 22 40  1  0
 23 41  1  0
 25 42  1  0
M  END
>  <Energy>  (896) 
1646.8586486562417

>  <compound_id>  (896) 
45302

>  <target_id>  (896) 
1

>  <reference_id>  (896) 
7

>  <inspiration_ids>  (896) 
[107, 7]

>  <energy_score>  (896) 
1529.635061625681

>  <distance_score>  (896) 
5.598226263899057

>  <path>  (896) 
/opt/xchem-fragalysis-2/maxwin/BulkDock/SCRATCH/511022/C45302-P7/C45302-P7.minimised.mol

>  <scratch_subdir>  (896) 
/opt/xchem-fragalysis-2/maxwin/BulkDock/SCRATCH/511022/C45302-P7

>  <fragmenstein_runtime>  (896) 
13.885406255722046

>  <fragmenstein_outcome>  (896) 
too moved

>  <fragmenstein_mode>  (896) 
expansion

>  <fragmenstein_error>  (896) 


$$$$
C45308-P107
     RDKit          3D

 42 45  0  0  0  0  0  0  0  0999 V2000
  -12.0997  -10.2569   36.0901 O   0  0  0  0  0  0  0  0  0  0  0  0
  -12.9543   -9.4614   36.4440 C   0  0  0  0  0  0  0  0  0  0  0  0
  -14.1413   -9.6589   37.3554 N   0  0  0  0  0  0  0  0  0  0  0  0
  -14.6816  -10.9003   38.0137 C   0  0  0  0  0  0  0  0  0  0  0  0
  -15.4635  -12.0210   37.1493 C   0  0  0  0  0  0  0  0  0  0  0  0
  -15.0982  -13.4465   37.1589 N   0  0  0  0  0  0  0  0  0  0  0  0
  -15.9031  -14.6230   37.3101 C   0  0  0  0  0  0  0  0  0  0  0  0
  -17.0690  -14.7461   37.5523 O   0  0  0  0  0  0  0  0  0  0  0  0
  -15.1346  -15.8838   37.0037 C   0  0  0  0  0  0  0  0  0  0  0  0
  -15.7375  -17.0790   36.6193 C   0  0  0  0  0  0  0  0  0  0  0  0
  -14.7803  -17.8005   35.9561 N   0  0  0  0  0  0  0  0  0  0  0  0
  -14.8952  -18.9607   35.2002 C   0  0  0  0  0  0  0  0  0  0  0  0
  -13.7987  -19.4868   34.6376 C   0  0  0  0  0  0  0  0  0  0  0  0
  -12.5360  -18.7495   34.9217 C   0  0  0  0  0  0  0  0  0  0  0  0
  -12.4202  -17.6588   35.6177 N   0  0  0  0  0  0  0  0  0  0  0  0
  -13.5765  -17.1260   36.1084 C   0  0  0  0  0  0  0  0  0  0  0  0
  -13.7817  -15.9586   36.6961 N   0  0  0  0  0  0  0  0  0  0  0  0
  -15.3550  -11.8233   35.6483 C   0  0  0  0  0  0  0  0  0  0  0  0
  -16.0727  -12.8281   34.7261 C   0  0  0  0  0  0  0  0  0  0  0  0
  -16.4759  -11.4067   34.7536 C   0  0  0  0  0  0  0  0  0  0  0  0
  -12.7909   -7.6651   35.5424 C   0  0  0  0  0  0  0  0  0  0  0  0
  -11.6408   -6.4294   35.0227 C   0  0  0  0  0  0  0  0  0  0  0  0
  -12.2399   -5.2057   35.2536 C   0  0  0  0  0  0  0  0  0  0  0  0
  -13.4002   -5.7221   34.9390 N   0  0  0  0  0  0  0  0  0  0  0  0
  -13.9205   -6.7051   35.6031 N   0  0  0  0  0  0  0  0  0  0  0  0
  -14.5983   -8.7682   37.5017 H   0  0  0  0  0  0  0  0  0  0  0  0
  -13.8368  -11.3689   38.5252 H   0  0  0  0  0  0  0  0  0  0  0  0
  -15.3621  -10.5473   38.7970 H   0  0  0  0  0  0  0  0  0  0  0  0
  -16.5189  -11.9702   37.4442 H   0  0  0  0  0  0  0  0  0  0  0  0
  -14.1591  -13.7213   36.8714 H   0  0  0  0  0  0  0  0  0  0  0  0
  -16.7769  -17.3754   36.6270 H   0  0  0  0  0  0  0  0  0  0  0  0
  -15.8786  -19.4055   35.1130 H   0  0  0  0  0  0  0  0  0  0  0  0
  -13.7728  -20.4053   34.0681 H   0  0  0  0  0  0  0  0  0  0  0  0
  -11.6335  -19.2013   34.4854 H   0  0  0  0  0  0  0  0  0  0  0  0
  -14.3260  -11.6515   35.3535 H   0  0  0  0  0  0  0  0  0  0  0  0
  -16.8107  -13.5266   35.0976 H   0  0  0  0  0  0  0  0  0  0  0  0
  -15.5167  -13.1907   33.8672 H   0  0  0  0  0  0  0  0  0  0  0  0
  -16.1971  -10.9139   33.8357 H   0  0  0  0  0  0  0  0  0  0  0  0
  -17.4231  -11.1519   35.2053 H   0  0  0  0  0  0  0  0  0  0  0  0
  -10.6587   -6.4967   34.6145 H   0  0  0  0  0  0  0  0  0  0  0  0
  -11.9534   -4.1724   35.1673 H   0  0  0  0  0  0  0  0  0  0  0  0
  -13.6709   -5.7330   33.9772 H   0  0  0  0  0  0  0  0  0  0  0  0
  1  2  2  0
  2  3  1  0
  3  4  1  0
  4  5  1  0
  5  6  1  0
  6  7  1  0
  7  8  2  0
  7  9  1  0
  9 10  2  0
 10 11  1  0
 11 12  1  0
 12 13  2  0
 13 14  1  0
 14 15  2  0
 15 16  1  0
 16 17  2  0
  5 18  1  0
 18 19  1  0
 19 20  1  0
  2 21  1  0
 21 22  1  0
 22 23  2  0
 23 24  1  0
 24 25  1  0
 17  9  1  0
 20 18  1  0
 25 21  2  0
 16 11  1  0
  3 26  1  0
  4 27  1  0
  4 28  1  0
  5 29  1  0
  6 30  1  0
 10 31  1  0
 12 32  1  0
 13 33  1  0
 14 34  1  0
 18 35  1  0
 19 36  1  0
 19 37  1  0
 20 38  1  0
 20 39  1  0
 22 40  1  0
 23 41  1  0
 24 42  1  0
M  END
>  <Energy>  (897) 
288.81904667313398

>  <compound_id>  (897) 
45308

>  <target_id>  (897) 
1

>  <reference_id>  (897) 
107

>  <inspiration_ids>  (897) 
[107, 7]

>  <energy_score>  (897) 
174.30605689677498

>  <distance_score>  (897) 
7.62181910490008

>  <path>  (897) 
/opt/xchem-fragalysis-2/maxwin/BulkDock/SCRATCH/511022/C45308-P107/C45308-P107.minimised.mol

>  <scratch_subdir>  (897) 
/opt/xchem-fragalysis-2/maxwin/BulkDock/SCRATCH/511022/C45308-P107

>  <fragmenstein_runtime>  (897) 
22.4649395942688

>  <fragmenstein_outcome>  (897) 
too moved

>  <fragmenstein_mode>  (897) 
expansion

>  <fragmenstein_error>  (897) 


$$$$
C45308-P7
     RDKit          3D

 42 45  0  0  0  0  0  0  0  0999 V2000
   -8.0399   -6.7166   35.3471 O   0  0  0  0  0  0  0  0  0  0  0  0
   -7.8690   -6.7509   34.1479 C   0  0  0  0  0  0  0  0  0  0  0  0
   -8.5566   -7.6629   33.0033 N   0  0  0  0  0  0  0  0  0  0  0  0
   -9.8482   -9.2785   33.1019 C   0  0  0  0  0  0  0  0  0  0  0  0
   -9.1764  -11.3073   32.3728 C   0  0  0  0  0  0  0  0  0  0  0  0
   -9.3435  -13.2188   33.0504 N   0  0  0  0  0  0  0  0  0  0  0  0
  -10.8321  -14.4318   33.2964 C   0  0  0  0  0  0  0  0  0  0  0  0
  -12.0101  -14.1862   32.9438 O   0  0  0  0  0  0  0  0  0  0  0  0
  -10.8131  -15.7759   34.0740 C   0  0  0  0  0  0  0  0  0  0  0  0
  -12.2164  -15.9304   34.5184 C   0  0  0  0  0  0  0  0  0  0  0  0
  -12.4520  -17.1502   35.0030 N   0  0  0  0  0  0  0  0  0  0  0  0
  -13.6877  -17.7159   35.2832 C   0  0  0  0  0  0  0  0  0  0  0  0
  -13.8602  -19.0262   35.0988 C   0  0  0  0  0  0  0  0  0  0  0  0
  -12.6643  -19.6975   34.5526 C   0  0  0  0  0  0  0  0  0  0  0  0
  -11.5330  -19.1226   34.2901 N   0  0  0  0  0  0  0  0  0  0  0  0
  -11.3157  -17.8160   34.6902 C   0  0  0  0  0  0  0  0  0  0  0  0
  -10.2365  -16.9609   34.4965 N   0  0  0  0  0  0  0  0  0  0  0  0
   -7.2940  -12.1508   31.9212 C   0  0  0  0  0  0  0  0  0  0  0  0
   -7.4327  -14.0845   31.7490 C   0  0  0  0  0  0  0  0  0  0  0  0
   -6.5653  -13.5936   30.7676 C   0  0  0  0  0  0  0  0  0  0  0  0
   -6.6477   -5.8548   33.7559 C   0  0  0  0  0  0  0  0  0  0  0  0
   -5.6090   -5.6614   34.7325 C   0  0  0  0  0  0  0  0  0  0  0  0
   -4.5215   -5.0541   34.1710 C   0  0  0  0  0  0  0  0  0  0  0  0
   -4.7843   -5.2053   32.8636 N   0  0  0  0  0  0  0  0  0  0  0  0
   -5.8418   -6.0349   32.6471 N   0  0  0  0  0  0  0  0  0  0  0  0
   -8.2429   -7.3644   32.1170 H   0  0  0  0  0  0  0  0  0  0  0  0
  -10.6525   -9.4501   33.8204 H   0  0  0  0  0  0  0  0  0  0  0  0
  -10.6913   -8.7781   32.5909 H   0  0  0  0  0  0  0  0  0  0  0  0
   -8.5703  -11.4635   33.2729 H   0  0  0  0  0  0  0  0  0  0  0  0
   -8.5033  -13.6644   33.3315 H   0  0  0  0  0  0  0  0  0  0  0  0
  -13.0827  -15.3133   34.3151 H   0  0  0  0  0  0  0  0  0  0  0  0
  -14.4999  -17.0496   35.5423 H   0  0  0  0  0  0  0  0  0  0  0  0
  -14.8004  -19.5461   35.1842 H   0  0  0  0  0  0  0  0  0  0  0  0
  -12.8017  -20.7576   34.2799 H   0  0  0  0  0  0  0  0  0  0  0  0
   -6.3630  -11.6063   31.9795 H   0  0  0  0  0  0  0  0  0  0  0  0
   -8.3674  -14.5200   31.3379 H   0  0  0  0  0  0  0  0  0  0  0  0
   -7.6777  -14.8709   32.4881 H   0  0  0  0  0  0  0  0  0  0  0  0
   -6.7756  -13.8568   29.7152 H   0  0  0  0  0  0  0  0  0  0  0  0
   -5.5382  -13.3057   30.5283 H   0  0  0  0  0  0  0  0  0  0  0  0
   -5.6276   -6.1569   35.6893 H   0  0  0  0  0  0  0  0  0  0  0  0
   -3.5636   -4.7354   34.5547 H   0  0  0  0  0  0  0  0  0  0  0  0
   -4.1827   -4.9653   32.0831 H   0  0  0  0  0  0  0  0  0  0  0  0
  1  2  2  0
  2  3  1  0
  3  4  1  0
  4  5  1  0
  5  6  1  0
  6  7  1  0
  7  8  2  0
  7  9  1  0
  9 10  2  0
 10 11  1  0
 11 12  1  0
 12 13  2  0
 13 14  1  0
 14 15  2  0
 15 16  1  0
 16 17  2  0
  5 18  1  0
 18 19  1  0
 19 20  1  0
  2 21  1  0
 21 22  1  0
 22 23  2  0
 23 24  1  0
 24 25  1  0
 17  9  1  0
 20 18  1  0
 25 21  2  0
 16 11  1  0
  3 26  1  0
  4 27  1  0
  4 28  1  0
  5 29  1  0
  6 30  1  0
 10 31  1  0
 12 32  1  0
 13 33  1  0
 14 34  1  0
 18 35  1  0
 19 36  1  0
 19 37  1  0
 20 38  1  0
 20 39  1  0
 22 40  1  0
 23 41  1  0
 24 42  1  0
M  END
>  <Energy>  (898) 
986.31907502327192

>  <compound_id>  (898) 
45308

>  <target_id>  (898) 
1

>  <reference_id>  (898) 
7

>  <inspiration_ids>  (898) 
[107, 7]

>  <energy_score>  (898) 
871.8060852469105

>  <distance_score>  (898) 
8.31040342300476

>  <path>  (898) 
/opt/xchem-fragalysis-2/maxwin/BulkDock/SCRATCH/511022/C45308-P7/C45308-P7.minimised.mol

>  <scratch_subdir>  (898) 
/opt/xchem-fragalysis-2/maxwin/BulkDock/SCRATCH/511022/C45308-P7

>  <fragmenstein_runtime>  (898) 
17.996730089187622

>  <fragmenstein_outcome>  (898) 
too moved

>  <fragmenstein_mode>  (898) 
expansion

>  <fragmenstein_error>  (898) 


$$$$
C45301-P107
     RDKit          3D

 42 45  0  0  0  0  0  0  0  0999 V2000
  -13.1043  -17.0426   36.5979 O   0  0  0  0  0  0  0  0  0  0  0  0
  -14.1927  -17.0461   36.0978 C   0  0  0  0  0  0  0  0  0  0  0  0
  -15.1808  -16.0045   35.9914 N   0  0  0  0  0  0  0  0  0  0  0  0
  -15.1304  -14.5923   36.3705 C   0  0  0  0  0  0  0  0  0  0  0  0
  -16.1211  -14.1497   37.4765 C   0  0  0  0  0  0  0  0  0  0  0  0
  -15.8758  -12.7940   37.9703 N   0  0  0  0  0  0  0  0  0  0  0  0
  -14.9659  -12.3055   38.9627 C   0  0  0  0  0  0  0  0  0  0  0  0
  -14.2267  -12.8910   39.7013 O   0  0  0  0  0  0  0  0  0  0  0  0
  -14.9603  -10.7954   38.9792 C   0  0  0  0  0  0  0  0  0  0  0  0
  -14.0669   -9.9509   39.7083 C   0  0  0  0  0  0  0  0  0  0  0  0
  -14.4774   -8.6621   39.4707 C   0  0  0  0  0  0  0  0  0  0  0  0
  -15.5467   -8.7701   38.6386 N   0  0  0  0  0  0  0  0  0  0  0  0
  -15.8308  -10.0359   38.2694 N   0  0  0  0  0  0  0  0  0  0  0  0
  -15.1767  -13.8203   35.0644 C   0  0  0  0  0  0  0  0  0  0  0  0
  -14.9475  -12.3351   34.9802 C   0  0  0  0  0  0  0  0  0  0  0  0
  -16.3011  -12.8923   34.6585 C   0  0  0  0  0  0  0  0  0  0  0  0
  -14.5764  -18.3160   35.3604 C   0  0  0  0  0  0  0  0  0  0  0  0
  -15.9476  -18.7429   34.9542 C   0  0  0  0  0  0  0  0  0  0  0  0
  -16.2717  -19.7177   34.1600 N   0  0  0  0  0  0  0  0  0  0  0  0
  -15.2507  -20.5046   33.7231 C   0  0  0  0  0  0  0  0  0  0  0  0
  -15.2874  -21.5185   32.8915 N   0  0  0  0  0  0  0  0  0  0  0  0
  -14.0201  -22.0370   32.8596 C   0  0  0  0  0  0  0  0  0  0  0  0
  -13.1643  -21.2583   33.6003 C   0  0  0  0  0  0  0  0  0  0  0  0
  -13.9472  -20.2685   34.1435 N   0  0  0  0  0  0  0  0  0  0  0  0
  -13.6130  -19.1600   34.9215 C   0  0  0  0  0  0  0  0  0  0  0  0
  -15.9500  -16.3364   35.4320 H   0  0  0  0  0  0  0  0  0  0  0  0
  -14.1346  -14.4756   36.7750 H   0  0  0  0  0  0  0  0  0  0  0  0
  -17.1567  -14.1977   37.1266 H   0  0  0  0  0  0  0  0  0  0  0  0
  -16.0225  -14.8253   38.3336 H   0  0  0  0  0  0  0  0  0  0  0  0
  -16.2806  -12.0027   37.4751 H   0  0  0  0  0  0  0  0  0  0  0  0
  -13.2519  -10.2760   40.3415 H   0  0  0  0  0  0  0  0  0  0  0  0
  -14.1206   -7.7085   39.8339 H   0  0  0  0  0  0  0  0  0  0  0  0
  -16.1344   -8.0246   38.2808 H   0  0  0  0  0  0  0  0  0  0  0  0
  -14.6493  -14.3628   34.2833 H   0  0  0  0  0  0  0  0  0  0  0  0
  -14.7851  -11.7695   35.8854 H   0  0  0  0  0  0  0  0  0  0  0  0
  -14.3528  -11.9789   34.1479 H   0  0  0  0  0  0  0  0  0  0  0  0
  -16.5919  -12.8681   33.6146 H   0  0  0  0  0  0  0  0  0  0  0  0
  -17.1144  -12.6896   35.3412 H   0  0  0  0  0  0  0  0  0  0  0  0
  -16.7766  -18.1506   35.3738 H   0  0  0  0  0  0  0  0  0  0  0  0
  -13.7987  -22.9345   32.2938 H   0  0  0  0  0  0  0  0  0  0  0  0
  -12.1074  -21.3298   33.7970 H   0  0  0  0  0  0  0  0  0  0  0  0
  -12.5559  -19.0091   35.1184 H   0  0  0  0  0  0  0  0  0  0  0  0
  1  2  2  0
  2  3  1  0
  3  4  1  0
  4  5  1  0
  5  6  1  0
  6  7  1  0
  7  8  2  0
  7  9  1  0
  9 10  1  0
 10 11  2  0
 11 12  1  0
 12 13  1  0
  4 14  1  0
 14 15  1  0
 15 16  1  0
  2 17  1  0
 17 18  1  0
 18 19  2  0
 19 20  1  0
 20 21  2  0
 21 22  1  0
 22 23  2  0
 23 24  1  0
 24 25  1  0
 13  9  2  0
 16 14  1  0
 25 17  2  0
 24 20  1  0
  3 26  1  0
  4 27  1  0
  5 28  1  0
  5 29  1  0
  6 30  1  0
 10 31  1  0
 11 32  1  0
 12 33  1  0
 14 34  1  0
 15 35  1  0
 15 36  1  0
 16 37  1  0
 16 38  1  0
 18 39  1  0
 22 40  1  0
 23 41  1  0
 25 42  1  0
M  END
>  <Energy>  (899) 
71.289943424214314

>  <compound_id>  (899) 
45301

>  <target_id>  (899) 
1

>  <reference_id>  (899) 
107

>  <inspiration_ids>  (899) 
[107, 7]

>  <energy_score>  (899) 
-24.354320519747603

>  <distance_score>  (899) 
8.266081131147972

>  <path>  (899) 
/opt/xchem-fragalysis-2/maxwin/BulkDock/SCRATCH/511022/C45301-P107/C45301-P107.minimised.mol

>  <scratch_subdir>  (899) 
/opt/xchem-fragalysis-2/maxwin/BulkDock/SCRATCH/511022/C45301-P107

>  <fragmenstein_runtime>  (899) 
19.234149932861328

>  <fragmenstein_outcome>  (899) 
too moved

>  <fragmenstein_mode>  (899) 
expansion

>  <fragmenstein_error>  (899) 


$$$$
C45301-P7
     RDKit          3D

 42 45  0  0  0  0  0  0  0  0999 V2000
  -11.4833  -15.6524   31.1533 O   0  0  0  0  0  0  0  0  0  0  0  0
  -12.4372  -15.7630   30.5059 C   0  0  0  0  0  0  0  0  0  0  0  0
  -13.5513  -14.6268   30.4045 N   0  0  0  0  0  0  0  0  0  0  0  0
  -13.7869  -12.8578   31.3457 C   0  0  0  0  0  0  0  0  0  0  0  0
  -14.1512  -11.6985   33.1421 C   0  0  0  0  0  0  0  0  0  0  0  0
  -12.8771  -10.2938   33.7583 N   0  0  0  0  0  0  0  0  0  0  0  0
  -12.9964   -8.9911   35.0839 C   0  0  0  0  0  0  0  0  0  0  0  0
  -13.9441   -8.9172   35.8575 O   0  0  0  0  0  0  0  0  0  0  0  0
  -11.6427   -7.4422   35.2614 C   0  0  0  0  0  0  0  0  0  0  0  0
  -10.8781   -5.8712   35.9798 C   0  0  0  0  0  0  0  0  0  0  0  0
  -11.4873   -4.7020   36.3780 C   0  0  0  0  0  0  0  0  0  0  0  0
  -11.4805   -4.9194   35.0860 N   0  0  0  0  0  0  0  0  0  0  0  0
  -10.9942   -6.4904   34.4810 N   0  0  0  0  0  0  0  0  0  0  0  0
  -13.3069  -11.9556   29.7127 C   0  0  0  0  0  0  0  0  0  0  0  0
  -12.7210  -10.6418   28.6672 C   0  0  0  0  0  0  0  0  0  0  0  0
  -13.9886  -10.5655   29.2847 C   0  0  0  0  0  0  0  0  0  0  0  0
  -12.3537  -17.5073   29.4334 C   0  0  0  0  0  0  0  0  0  0  0  0
  -11.2896  -18.3257   29.0548 C   0  0  0  0  0  0  0  0  0  0  0  0
  -10.7571  -19.8014   29.5013 N   0  0  0  0  0  0  0  0  0  0  0  0
  -11.4292  -20.9323   29.8631 C   0  0  0  0  0  0  0  0  0  0  0  0
  -11.2400  -22.1776   30.1626 N   0  0  0  0  0  0  0  0  0  0  0  0
  -11.5617  -22.7366   28.9804 C   0  0  0  0  0  0  0  0  0  0  0  0
  -12.1238  -21.7577   28.1844 C   0  0  0  0  0  0  0  0  0  0  0  0
  -12.4314  -20.6847   29.0688 N   0  0  0  0  0  0  0  0  0  0  0  0
  -12.9069  -19.0574   29.1615 C   0  0  0  0  0  0  0  0  0  0  0  0
  -14.3107  -14.9816   29.8677 H   0  0  0  0  0  0  0  0  0  0  0  0
  -13.1958  -13.6429   31.9316 H   0  0  0  0  0  0  0  0  0  0  0  0
  -15.1153  -11.1833   33.0514 H   0  0  0  0  0  0  0  0  0  0  0  0
  -14.1866  -12.4067   33.9845 H   0  0  0  0  0  0  0  0  0  0  0  0
  -11.9813  -10.2154   33.3012 H   0  0  0  0  0  0  0  0  0  0  0  0
   -9.7806   -5.7045   36.0364 H   0  0  0  0  0  0  0  0  0  0  0  0
  -11.2408   -3.7547   36.8327 H   0  0  0  0  0  0  0  0  0  0  0  0
  -11.4297   -4.0972   34.4837 H   0  0  0  0  0  0  0  0  0  0  0  0
  -12.4281  -11.8375   30.2493 H   0  0  0  0  0  0  0  0  0  0  0  0
  -12.5370  -10.8918   27.6219 H   0  0  0  0  0  0  0  0  0  0  0  0
  -11.8826  -10.0214   28.9927 H   0  0  0  0  0  0  0  0  0  0  0  0
  -15.0654  -10.4588   29.1462 H   0  0  0  0  0  0  0  0  0  0  0  0
  -14.4223   -9.9768   28.3375 H   0  0  0  0  0  0  0  0  0  0  0  0
  -11.0227  -17.8746   28.0932 H   0  0  0  0  0  0  0  0  0  0  0  0
  -11.2978  -23.7519   28.7212 H   0  0  0  0  0  0  0  0  0  0  0  0
  -12.1816  -21.7554   27.1168 H   0  0  0  0  0  0  0  0  0  0  0  0
  -13.9506  -19.2730   29.3694 H   0  0  0  0  0  0  0  0  0  0  0  0
  1  2  2  0
  2  3  1  0
  3  4  1  0
  4  5  1  0
  5  6  1  0
  6  7  1  0
  7  8  2  0
  7  9  1  0
  9 10  1  0
 10 11  2  0
 11 12  1  0
 12 13  1  0
  4 14  1  0
 14 15  1  0
 15 16  1  0
  2 17  1  0
 17 18  1  0
 18 19  2  0
 19 20  1  0
 20 21  2  0
 21 22  1  0
 22 23  2  0
 23 24  1  0
 24 25  1  0
 13  9  2  0
 16 14  1  0
 25 17  2  0
 24 20  1  0
  3 26  1  0
  4 27  1  0
  5 28  1  0
  5 29  1  0
  6 30  1  0
 10 31  1  0
 11 32  1  0
 12 33  1  0
 14 34  1  0
 15 35  1  0
 15 36  1  0
 16 37  1  0
 16 38  1  0
 18 39  1  0
 22 40  1  0
 23 41  1  0
 25 42  1  0
M  END
>  <Energy>  (900) 
1535.6345946507518

>  <compound_id>  (900) 
45301

>  <target_id>  (900) 
1

>  <reference_id>  (900) 
7

>  <inspiration_ids>  (900) 
[107, 7]

>  <energy_score>  (900) 
1439.9903307067889

>  <distance_score>  (900) 
5.41669378080813

>  <path>  (900) 
/opt/xchem-fragalysis-2/maxwin/BulkDock/SCRATCH/511022/C45301-P7/C45301-P7.minimised.mol

>  <scratch_subdir>  (900) 
/opt/xchem-fragalysis-2/maxwin/BulkDock/SCRATCH/511022/C45301-P7

>  <fragmenstein_runtime>  (900) 
17.408848524093628

>  <fragmenstein_outcome>  (900) 
too moved

>  <fragmenstein_mode>  (900) 
expansion

>  <fragmenstein_error>  (900) 


$$$$
C45309-P107
     RDKit          3D

 42 45  0  0  0  0  0  0  0  0999 V2000
  -12.6302  -17.2136   36.5906 O   0  0  0  0  0  0  0  0  0  0  0  0
  -13.6275  -17.2213   35.9299 C   0  0  0  0  0  0  0  0  0  0  0  0
  -14.6472  -16.2258   35.7625 N   0  0  0  0  0  0  0  0  0  0  0  0
  -14.7408  -14.8619   36.2653 C   0  0  0  0  0  0  0  0  0  0  0  0
  -16.0553  -14.0632   36.1268 C   0  0  0  0  0  0  0  0  0  0  0  0
  -15.9875  -12.6663   36.9325 N   0  0  0  0  0  0  0  0  0  0  0  0
  -16.6621  -11.4164   36.7051 C   0  0  0  0  0  0  0  0  0  0  0  0
  -17.5181  -11.1224   35.9063 O   0  0  0  0  0  0  0  0  0  0  0  0
  -16.1315  -10.2944   37.5765 C   0  0  0  0  0  0  0  0  0  0  0  0
  -16.7063   -8.9813   37.6930 C   0  0  0  0  0  0  0  0  0  0  0  0
  -15.8843   -8.2711   38.5361 C   0  0  0  0  0  0  0  0  0  0  0  0
  -14.9055   -9.1431   38.9023 N   0  0  0  0  0  0  0  0  0  0  0  0
  -15.0215  -10.3565   38.3408 N   0  0  0  0  0  0  0  0  0  0  0  0
  -16.7651  -13.5288   38.0154 C   0  0  0  0  0  0  0  0  0  0  0  0
  -18.2745  -13.6824   38.0400 C   0  0  0  0  0  0  0  0  0  0  0  0
  -17.6048  -12.8686   39.0982 C   0  0  0  0  0  0  0  0  0  0  0  0
  -13.8936  -18.4344   35.1054 C   0  0  0  0  0  0  0  0  0  0  0  0
  -12.9907  -19.4575   34.8696 C   0  0  0  0  0  0  0  0  0  0  0  0
  -13.6336  -20.3836   34.0932 N   0  0  0  0  0  0  0  0  0  0  0  0
  -13.1728  -21.5695   33.5267 C   0  0  0  0  0  0  0  0  0  0  0  0
  -13.9965  -22.2962   32.7616 C   0  0  0  0  0  0  0  0  0  0  0  0
  -15.3583  -21.7180   32.5884 C   0  0  0  0  0  0  0  0  0  0  0  0
  -15.7923  -20.5928   33.0794 N   0  0  0  0  0  0  0  0  0  0  0  0
  -14.9232  -19.8994   33.8709 C   0  0  0  0  0  0  0  0  0  0  0  0
  -15.0737  -18.7030   34.4242 N   0  0  0  0  0  0  0  0  0  0  0  0
  -15.3921  -16.6094   35.1873 H   0  0  0  0  0  0  0  0  0  0  0  0
  -14.4377  -14.9190   37.3127 H   0  0  0  0  0  0  0  0  0  0  0  0
  -13.9587  -14.3129   35.7332 H   0  0  0  0  0  0  0  0  0  0  0  0
  -16.9661  -14.6711   36.2252 H   0  0  0  0  0  0  0  0  0  0  0  0
  -16.1147  -13.7217   35.0828 H   0  0  0  0  0  0  0  0  0  0  0  0
  -17.6009   -8.6298   37.1973 H   0  0  0  0  0  0  0  0  0  0  0  0
  -15.9188   -7.2582   38.9102 H   0  0  0  0  0  0  0  0  0  0  0  0
  -14.1253   -8.9854   39.5328 H   0  0  0  0  0  0  0  0  0  0  0  0
  -16.1262  -14.2920   38.4651 H   0  0  0  0  0  0  0  0  0  0  0  0
  -18.6778  -14.6492   38.3191 H   0  0  0  0  0  0  0  0  0  0  0  0
  -18.8644  -13.1614   37.2938 H   0  0  0  0  0  0  0  0  0  0  0  0
  -17.7892  -11.8034   39.1004 H   0  0  0  0  0  0  0  0  0  0  0  0
  -17.5466  -13.2854   40.0986 H   0  0  0  0  0  0  0  0  0  0  0  0
  -11.9702  -19.5843   35.1923 H   0  0  0  0  0  0  0  0  0  0  0  0
  -12.1586  -21.8709   33.7489 H   0  0  0  0  0  0  0  0  0  0  0  0
  -13.7484  -23.2417   32.3010 H   0  0  0  0  0  0  0  0  0  0  0  0
  -16.0481  -22.3180   31.9765 H   0  0  0  0  0  0  0  0  0  0  0  0
  1  2  2  0
  2  3  1  0
  3  4  1  0
  4  5  1  0
  5  6  1  0
  6  7  1  0
  7  8  2  0
  7  9  1  0
  9 10  1  0
 10 11  2  0
 11 12  1  0
 12 13  1  0
  6 14  1  0
 14 15  1  0
 15 16  1  0
  2 17  1  0
 17 18  2  0
 18 19  1  0
 19 20  1  0
 20 21  2  0
 21 22  1  0
 22 23  2  0
 23 24  1  0
 24 25  2  0
 13  9  2  0
 16 14  1  0
 25 17  1  0
 24 19  1  0
  3 26  1  0
  4 27  1  0
  4 28  1  0
  5 29  1  0
  5 30  1  0
 10 31  1  0
 11 32  1  0
 12 33  1  0
 14 34  1  0
 15 35  1  0
 15 36  1  0
 16 37  1  0
 16 38  1  0
 18 39  1  0
 20 40  1  0
 21 41  1  0
 22 42  1  0
M  END
>  <Energy>  (901) 
170.40083163062872

>  <compound_id>  (901) 
45309

>  <target_id>  (901) 
1

>  <reference_id>  (901) 
107

>  <inspiration_ids>  (901) 
[107, 7]

>  <energy_score>  (901) 
36.18054002714575

>  <distance_score>  (901) 
7.263706057737534

>  <path>  (901) 
/opt/xchem-fragalysis-2/maxwin/BulkDock/SCRATCH/511022/C45309-P107/C45309-P107.minimised.mol

>  <scratch_subdir>  (901) 
/opt/xchem-fragalysis-2/maxwin/BulkDock/SCRATCH/511022/C45309-P107

>  <fragmenstein_runtime>  (901) 
16.680548906326294

>  <fragmenstein_outcome>  (901) 
too moved

>  <fragmenstein_mode>  (901) 
expansion

>  <fragmenstein_error>  (901) 


$$$$
C45309-P7
     RDKit          3D

 42 45  0  0  0  0  0  0  0  0999 V2000
  -13.4404  -13.7499   34.0979 O   0  0  0  0  0  0  0  0  0  0  0  0
  -14.5220  -13.5756   34.5614 C   0  0  0  0  0  0  0  0  0  0  0  0
  -15.2273  -12.3549   34.8602 N   0  0  0  0  0  0  0  0  0  0  0  0
  -14.8614  -10.8964   34.5890 C   0  0  0  0  0  0  0  0  0  0  0  0
  -14.8199   -9.9826   35.8620 C   0  0  0  0  0  0  0  0  0  0  0  0
  -13.8831   -8.5564   35.8807 N   0  0  0  0  0  0  0  0  0  0  0  0
  -12.2634   -8.1709   35.2051 C   0  0  0  0  0  0  0  0  0  0  0  0
  -11.6576   -9.1091   34.7070 O   0  0  0  0  0  0  0  0  0  0  0  0
  -11.5378   -6.2889   35.4705 C   0  0  0  0  0  0  0  0  0  0  0  0
  -10.4022   -5.4233   35.8528 C   0  0  0  0  0  0  0  0  0  0  0  0
  -10.7068   -4.1172   36.3122 C   0  0  0  0  0  0  0  0  0  0  0  0
  -12.0021   -4.0345   36.2751 N   0  0  0  0  0  0  0  0  0  0  0  0
  -12.5167   -5.1984   36.0061 N   0  0  0  0  0  0  0  0  0  0  0  0
  -13.7820   -8.9745   37.4671 C   0  0  0  0  0  0  0  0  0  0  0  0
  -14.1416   -7.9424   38.5344 C   0  0  0  0  0  0  0  0  0  0  0  0
  -15.0080   -9.1255   38.3944 C   0  0  0  0  0  0  0  0  0  0  0  0
  -15.1305  -14.9036   34.9626 C   0  0  0  0  0  0  0  0  0  0  0  0
  -14.3826  -16.0791   34.7512 C   0  0  0  0  0  0  0  0  0  0  0  0
  -15.1269  -17.1223   35.1880 N   0  0  0  0  0  0  0  0  0  0  0  0
  -14.9119  -18.4821   34.9959 C   0  0  0  0  0  0  0  0  0  0  0  0
  -15.9321  -19.3271   35.1795 C   0  0  0  0  0  0  0  0  0  0  0  0
  -17.1599  -18.6907   35.7315 C   0  0  0  0  0  0  0  0  0  0  0  0
  -17.3389  -17.4287   35.9956 N   0  0  0  0  0  0  0  0  0  0  0  0
  -16.3089  -16.5834   35.6880 C   0  0  0  0  0  0  0  0  0  0  0  0
  -16.2832  -15.2457   35.6435 N   0  0  0  0  0  0  0  0  0  0  0  0
  -16.1664  -12.5835   35.1718 H   0  0  0  0  0  0  0  0  0  0  0  0
  -15.5741  -10.5089   33.8576 H   0  0  0  0  0  0  0  0  0  0  0  0
  -13.8699  -10.9084   34.1329 H   0  0  0  0  0  0  0  0  0  0  0  0
  -15.8467   -9.6558   36.0589 H   0  0  0  0  0  0  0  0  0  0  0  0
  -14.4651  -10.7081   36.6081 H   0  0  0  0  0  0  0  0  0  0  0  0
   -9.3450   -5.6308   35.8329 H   0  0  0  0  0  0  0  0  0  0  0  0
  -10.1229   -3.2575   36.5889 H   0  0  0  0  0  0  0  0  0  0  0  0
  -12.6264   -3.2653   36.5028 H   0  0  0  0  0  0  0  0  0  0  0  0
  -12.9542   -9.6542   37.6726 H   0  0  0  0  0  0  0  0  0  0  0  0
  -13.5091   -7.8821   39.4135 H   0  0  0  0  0  0  0  0  0  0  0  0
  -14.5705   -6.9947   38.2270 H   0  0  0  0  0  0  0  0  0  0  0  0
  -16.0140   -8.9253   38.0473 H   0  0  0  0  0  0  0  0  0  0  0  0
  -14.9541   -9.8871   39.1656 H   0  0  0  0  0  0  0  0  0  0  0  0
  -13.4255  -16.2182   34.2596 H   0  0  0  0  0  0  0  0  0  0  0  0
  -13.9392  -18.7929   34.6349 H   0  0  0  0  0  0  0  0  0  0  0  0
  -15.9037  -20.3934   35.0036 H   0  0  0  0  0  0  0  0  0  0  0  0
  -17.9835  -19.3913   35.9510 H   0  0  0  0  0  0  0  0  0  0  0  0
  1  2  2  0
  2  3  1  0
  3  4  1  0
  4  5  1  0
  5  6  1  0
  6  7  1  0
  7  8  2  0
  7  9  1  0
  9 10  1  0
 10 11  2  0
 11 12  1  0
 12 13  1  0
  6 14  1  0
 14 15  1  0
 15 16  1  0
  2 17  1  0
 17 18  2  0
 18 19  1  0
 19 20  1  0
 20 21  2  0
 21 22  1  0
 22 23  2  0
 23 24  1  0
 24 25  2  0
 13  9  2  0
 16 14  1  0
 25 17  1  0
 24 19  1  0
  3 26  1  0
  4 27  1  0
  4 28  1  0
  5 29  1  0
  5 30  1  0
 10 31  1  0
 11 32  1  0
 12 33  1  0
 14 34  1  0
 15 35  1  0
 15 36  1  0
 16 37  1  0
 16 38  1  0
 18 39  1  0
 20 40  1  0
 21 41  1  0
 22 42  1  0
M  END
>  <Energy>  (902) 
389.61387085758292

>  <compound_id>  (902) 
45309

>  <target_id>  (902) 
1

>  <reference_id>  (902) 
7

>  <inspiration_ids>  (902) 
[107, 7]

>  <energy_score>  (902) 
255.39357925409644

>  <distance_score>  (902) 
8.101940077206276

>  <path>  (902) 
/opt/xchem-fragalysis-2/maxwin/BulkDock/SCRATCH/511022/C45309-P7/C45309-P7.minimised.mol

>  <scratch_subdir>  (902) 
/opt/xchem-fragalysis-2/maxwin/BulkDock/SCRATCH/511022/C45309-P7

>  <fragmenstein_runtime>  (902) 
12.134523630142212

>  <fragmenstein_outcome>  (902) 
too moved

>  <fragmenstein_mode>  (902) 
expansion

>  <fragmenstein_error>  (902) 


$$$$
C45310-P107
     RDKit          3D

 42 45  0  0  0  0  0  0  0  0999 V2000
  -17.6258  -17.9956   35.6559 O   0  0  0  0  0  0  0  0  0  0  0  0
  -16.4467  -17.8238   35.5558 C   0  0  0  0  0  0  0  0  0  0  0  0
  -15.6405  -16.6726   35.8447 N   0  0  0  0  0  0  0  0  0  0  0  0
  -16.0169  -15.3071   36.2624 C   0  0  0  0  0  0  0  0  0  0  0  0
  -15.3714  -14.8015   37.5736 C   0  0  0  0  0  0  0  0  0  0  0  0
  -15.2443  -13.3430   37.6940 N   0  0  0  0  0  0  0  0  0  0  0  0
  -16.2235  -12.3025   37.5981 C   0  0  0  0  0  0  0  0  0  0  0  0
  -17.3859  -12.3471   37.3162 O   0  0  0  0  0  0  0  0  0  0  0  0
  -15.6475  -10.9731   38.0299 C   0  0  0  0  0  0  0  0  0  0  0  0
  -16.3081   -9.7034   38.0363 C   0  0  0  0  0  0  0  0  0  0  0  0
  -15.4242   -8.8134   38.6018 C   0  0  0  0  0  0  0  0  0  0  0  0
  -14.3147   -9.5442   38.8997 N   0  0  0  0  0  0  0  0  0  0  0  0
  -14.4087  -10.8370   38.5506 N   0  0  0  0  0  0  0  0  0  0  0  0
  -15.9648  -15.3085   38.8691 C   0  0  0  0  0  0  0  0  0  0  0  0
  -17.4236  -15.1080   39.2086 C   0  0  0  0  0  0  0  0  0  0  0  0
  -16.8895  -16.4963   38.9972 C   0  0  0  0  0  0  0  0  0  0  0  0
  -15.6429  -18.9267   34.9415 C   0  0  0  0  0  0  0  0  0  0  0  0
  -16.1564  -20.0879   34.3814 C   0  0  0  0  0  0  0  0  0  0  0  0
  -15.0887  -20.8024   33.9101 N   0  0  0  0  0  0  0  0  0  0  0  0
  -15.0421  -22.0193   33.2433 C   0  0  0  0  0  0  0  0  0  0  0  0
  -13.8556  -22.5381   32.9005 C   0  0  0  0  0  0  0  0  0  0  0  0
  -12.6803  -21.7268   33.3014 C   0  0  0  0  0  0  0  0  0  0  0  0
  -12.7067  -20.5804   33.9144 N   0  0  0  0  0  0  0  0  0  0  0  0
  -13.9419  -20.0773   34.2249 C   0  0  0  0  0  0  0  0  0  0  0  0
  -14.2649  -18.9135   34.7743 N   0  0  0  0  0  0  0  0  0  0  0  0
  -14.6795  -16.8604   35.5592 H   0  0  0  0  0  0  0  0  0  0  0  0
  -15.6932  -14.6595   35.4395 H   0  0  0  0  0  0  0  0  0  0  0  0
  -17.1094  -15.2538   36.3036 H   0  0  0  0  0  0  0  0  0  0  0  0
  -14.3424  -15.1704   37.5526 H   0  0  0  0  0  0  0  0  0  0  0  0
  -14.3270  -12.9215   37.8784 H   0  0  0  0  0  0  0  0  0  0  0  0
  -17.3164   -9.5055   37.6990 H   0  0  0  0  0  0  0  0  0  0  0  0
  -15.4987   -7.7616   38.8374 H   0  0  0  0  0  0  0  0  0  0  0  0
  -13.4594   -9.2352   39.3518 H   0  0  0  0  0  0  0  0  0  0  0  0
  -15.2623  -15.1580   39.6849 H   0  0  0  0  0  0  0  0  0  0  0  0
  -17.6701  -14.8010   40.2185 H   0  0  0  0  0  0  0  0  0  0  0  0
  -18.0922  -14.7046   38.4560 H   0  0  0  0  0  0  0  0  0  0  0  0
  -17.2423  -17.0257   38.1228 H   0  0  0  0  0  0  0  0  0  0  0  0
  -16.7788  -17.1328   39.8683 H   0  0  0  0  0  0  0  0  0  0  0  0
  -17.1733  -20.4430   34.2892 H   0  0  0  0  0  0  0  0  0  0  0  0
  -15.9792  -22.5190   33.0266 H   0  0  0  0  0  0  0  0  0  0  0  0
  -13.7163  -23.4835   32.3977 H   0  0  0  0  0  0  0  0  0  0  0  0
  -11.7064  -22.1656   33.0321 H   0  0  0  0  0  0  0  0  0  0  0  0
  1  2  2  0
  2  3  1  0
  3  4  1  0
  4  5  1  0
  5  6  1  0
  6  7  1  0
  7  8  2  0
  7  9  1  0
  9 10  1  0
 10 11  2  0
 11 12  1  0
 12 13  1  0
  5 14  1  0
 14 15  1  0
 15 16  1  0
  2 17  1  0
 17 18  2  0
 18 19  1  0
 19 20  1  0
 20 21  2  0
 21 22  1  0
 22 23  2  0
 23 24  1  0
 24 25  2  0
 13  9  2  0
 16 14  1  0
 25 17  1  0
 24 19  1  0
  3 26  1  0
  4 27  1  0
  4 28  1  0
  5 29  1  0
  6 30  1  0
 10 31  1  0
 11 32  1  0
 12 33  1  0
 14 34  1  0
 15 35  1  0
 15 36  1  0
 16 37  1  0
 16 38  1  0
 18 39  1  0
 20 40  1  0
 21 41  1  0
 22 42  1  0
M  END
>  <Energy>  (903) 
89.211640981281974

>  <compound_id>  (903) 
45310

>  <target_id>  (903) 
1

>  <reference_id>  (903) 
107

>  <inspiration_ids>  (903) 
[107, 7]

>  <energy_score>  (903) 
-30.343611164459276

>  <distance_score>  (903) 
7.5225839494730735

>  <path>  (903) 
/opt/xchem-fragalysis-2/maxwin/BulkDock/SCRATCH/511022/C45310-P107/C45310-P107.minimised.mol

>  <scratch_subdir>  (903) 
/opt/xchem-fragalysis-2/maxwin/BulkDock/SCRATCH/511022/C45310-P107

>  <fragmenstein_runtime>  (903) 
22.694846868515015

>  <fragmenstein_outcome>  (903) 
too moved

>  <fragmenstein_mode>  (903) 
expansion

>  <fragmenstein_error>  (903) 


$$$$
C45310-P7
     RDKit          3D

 42 45  0  0  0  0  0  0  0  0999 V2000
  -17.9610  -17.1272   37.6937 O   0  0  0  0  0  0  0  0  0  0  0  0
  -17.2765  -16.8878   36.7425 C   0  0  0  0  0  0  0  0  0  0  0  0
  -16.7748  -15.6365   36.2393 N   0  0  0  0  0  0  0  0  0  0  0  0
  -16.8625  -14.2656   36.7885 C   0  0  0  0  0  0  0  0  0  0  0  0
  -16.9237  -13.0395   35.8108 C   0  0  0  0  0  0  0  0  0  0  0  0
  -16.6057  -11.7454   36.4202 N   0  0  0  0  0  0  0  0  0  0  0  0
  -17.0414  -10.4172   36.0909 C   0  0  0  0  0  0  0  0  0  0  0  0
  -17.8395  -10.0337   35.2837 O   0  0  0  0  0  0  0  0  0  0  0  0
  -16.2598   -9.3858   36.8518 C   0  0  0  0  0  0  0  0  0  0  0  0
  -16.4066   -7.9662   36.7750 C   0  0  0  0  0  0  0  0  0  0  0  0
  -15.4470   -7.4423   37.6064 C   0  0  0  0  0  0  0  0  0  0  0  0
  -14.7742   -8.5142   38.1117 N   0  0  0  0  0  0  0  0  0  0  0  0
  -15.2426   -9.7038   37.6807 N   0  0  0  0  0  0  0  0  0  0  0  0
  -16.0351  -13.2380   34.6162 C   0  0  0  0  0  0  0  0  0  0  0  0
  -15.5210  -12.1314   33.7250 C   0  0  0  0  0  0  0  0  0  0  0  0
  -14.5761  -12.8961   34.6013 C   0  0  0  0  0  0  0  0  0  0  0  0
  -16.8509  -18.0797   35.9144 C   0  0  0  0  0  0  0  0  0  0  0  0
  -17.1924  -19.3971   36.2001 C   0  0  0  0  0  0  0  0  0  0  0  0
  -16.6798  -20.1731   35.1970 N   0  0  0  0  0  0  0  0  0  0  0  0
  -16.7249  -21.5506   35.0037 C   0  0  0  0  0  0  0  0  0  0  0  0
  -16.1373  -22.0885   33.9263 C   0  0  0  0  0  0  0  0  0  0  0  0
  -15.5372  -21.1024   32.9961 C   0  0  0  0  0  0  0  0  0  0  0  0
  -15.4934  -19.8128   33.1644 N   0  0  0  0  0  0  0  0  0  0  0  0
  -16.0381  -19.3187   34.3149 C   0  0  0  0  0  0  0  0  0  0  0  0
  -16.0813  -18.0646   34.7512 N   0  0  0  0  0  0  0  0  0  0  0  0
  -16.1546  -15.8203   35.4557 H   0  0  0  0  0  0  0  0  0  0  0  0
  -17.7402  -14.2368   37.4456 H   0  0  0  0  0  0  0  0  0  0  0  0
  -16.0063  -14.1644   37.4565 H   0  0  0  0  0  0  0  0  0  0  0  0
  -17.9495  -12.9606   35.4300 H   0  0  0  0  0  0  0  0  0  0  0  0
  -15.8502  -11.6865   37.1018 H   0  0  0  0  0  0  0  0  0  0  0  0
  -17.1262   -7.4225   36.1785 H   0  0  0  0  0  0  0  0  0  0  0  0
  -15.1878   -6.4274   37.8700 H   0  0  0  0  0  0  0  0  0  0  0  0
  -13.9896   -8.5140   38.7579 H   0  0  0  0  0  0  0  0  0  0  0  0
  -16.3290  -14.1211   34.0781 H   0  0  0  0  0  0  0  0  0  0  0  0
  -15.6728  -11.0878   33.9562 H   0  0  0  0  0  0  0  0  0  0  0  0
  -15.4969  -12.3231   32.6582 H   0  0  0  0  0  0  0  0  0  0  0  0
  -13.9488  -13.6386   34.1305 H   0  0  0  0  0  0  0  0  0  0  0  0
  -14.1277  -12.3285   35.4053 H   0  0  0  0  0  0  0  0  0  0  0  0
  -17.7649  -19.8164   37.0158 H   0  0  0  0  0  0  0  0  0  0  0  0
  -17.2170  -22.1447   35.7630 H   0  0  0  0  0  0  0  0  0  0  0  0
  -16.0809  -23.1433   33.7015 H   0  0  0  0  0  0  0  0  0  0  0  0
  -15.1167  -21.5268   32.0716 H   0  0  0  0  0  0  0  0  0  0  0  0
  1  2  2  0
  2  3  1  0
  3  4  1  0
  4  5  1  0
  5  6  1  0
  6  7  1  0
  7  8  2  0
  7  9  1  0
  9 10  1  0
 10 11  2  0
 11 12  1  0
 12 13  1  0
  5 14  1  0
 14 15  1  0
 15 16  1  0
  2 17  1  0
 17 18  2  0
 18 19  1  0
 19 20  1  0
 20 21  2  0
 21 22  1  0
 22 23  2  0
 23 24  1  0
 24 25  2  0
 13  9  2  0
 16 14  1  0
 25 17  1  0
 24 19  1  0
  3 26  1  0
  4 27  1  0
  4 28  1  0
  5 29  1  0
  6 30  1  0
 10 31  1  0
 11 32  1  0
 12 33  1  0
 14 34  1  0
 15 35  1  0
 15 36  1  0
 16 37  1  0
 16 38  1  0
 18 39  1  0
 20 40  1  0
 21 41  1  0
 22 42  1  0
M  END
>  <Energy>  (904) 
92.690114346562851

>  <compound_id>  (904) 
45310

>  <target_id>  (904) 
1

>  <reference_id>  (904) 
7

>  <inspiration_ids>  (904) 
[107, 7]

>  <energy_score>  (904) 
-26.865137799172317

>  <distance_score>  (904) 
7.814631105187735

>  <path>  (904) 
/opt/xchem-fragalysis-2/maxwin/BulkDock/SCRATCH/511022/C45310-P7/C45310-P7.minimised.mol

>  <scratch_subdir>  (904) 
/opt/xchem-fragalysis-2/maxwin/BulkDock/SCRATCH/511022/C45310-P7

>  <fragmenstein_runtime>  (904) 
21.44363760948181

>  <fragmenstein_outcome>  (904) 
too moved

>  <fragmenstein_mode>  (904) 
expansion

>  <fragmenstein_error>  (904) 


$$$$
C48979-P107
     RDKit          3D

 38 41  0  0  0  0  0  0  0  0999 V2000
  -16.0474  -13.0712   38.2146 O   0  0  0  0  0  0  0  0  0  0  0  0
  -15.4501  -12.7428   37.2241 C   0  0  0  0  0  0  0  0  0  0  0  0
  -15.1615  -11.2406   36.9093 C   0  0  0  0  0  0  0  0  0  0  0  0
  -14.8888  -10.2389   38.0218 C   0  0  0  0  0  0  0  0  0  0  0  0
  -13.6754  -10.1819   38.6008 N   0  0  0  0  0  0  0  0  0  0  0  0
  -13.7242   -9.1412   39.4487 N   0  0  0  0  0  0  0  0  0  0  0  0
  -14.8770   -8.4329   39.3424 C   0  0  0  0  0  0  0  0  0  0  0  0
  -15.6561   -9.0957   38.4179 C   0  0  0  0  0  0  0  0  0  0  0  0
  -16.9911   -8.5802   38.0071 C   0  0  0  0  0  0  0  0  0  0  0  0
  -17.1653   -7.1035   38.4160 C   0  0  0  0  0  0  0  0  0  0  0  0
  -16.6927   -6.8415   39.8599 C   0  0  0  0  0  0  0  0  0  0  0  0
  -15.2015   -7.1754   40.0577 C   0  0  0  0  0  0  0  0  0  0  0  0
  -14.9594  -13.5501   36.0816 N   0  0  0  0  0  0  0  0  0  0  0  0
  -14.9659  -14.9136   35.8685 C   0  0  0  0  0  0  0  0  0  0  0  0
  -14.1830  -15.4615   34.6892 C   0  0  0  0  0  0  0  0  0  0  0  0
  -14.0914  -16.6961   34.2992 N   0  0  0  0  0  0  0  0  0  0  0  0
  -14.8374  -17.5918   34.9901 C   0  0  0  0  0  0  0  0  0  0  0  0
  -15.0965  -18.8401   34.6657 N   0  0  0  0  0  0  0  0  0  0  0  0
  -15.9759  -19.2864   35.6129 C   0  0  0  0  0  0  0  0  0  0  0  0
  -16.2356  -18.3091   36.5456 C   0  0  0  0  0  0  0  0  0  0  0  0
  -15.5619  -17.1982   36.1065 N   0  0  0  0  0  0  0  0  0  0  0  0
  -15.6059  -15.8748   36.5546 C   0  0  0  0  0  0  0  0  0  0  0  0
  -14.3019  -11.1823   36.2363 H   0  0  0  0  0  0  0  0  0  0  0  0
  -16.0300  -10.8946   36.3346 H   0  0  0  0  0  0  0  0  0  0  0  0
  -12.9143   -8.9582   40.0329 H   0  0  0  0  0  0  0  0  0  0  0  0
  -17.1338   -8.6801   36.9262 H   0  0  0  0  0  0  0  0  0  0  0  0
  -17.7648   -9.1847   38.4959 H   0  0  0  0  0  0  0  0  0  0  0  0
  -18.2183   -6.8188   38.3110 H   0  0  0  0  0  0  0  0  0  0  0  0
  -16.5902   -6.4652   37.7325 H   0  0  0  0  0  0  0  0  0  0  0  0
  -17.2955   -7.4531   40.5439 H   0  0  0  0  0  0  0  0  0  0  0  0
  -16.8708   -5.7942   40.1288 H   0  0  0  0  0  0  0  0  0  0  0  0
  -14.5901   -6.3608   39.6528 H   0  0  0  0  0  0  0  0  0  0  0  0
  -14.9773   -7.2599   41.1264 H   0  0  0  0  0  0  0  0  0  0  0  0
  -14.4212  -12.9541   35.4592 H   0  0  0  0  0  0  0  0  0  0  0  0
  -13.6306  -14.7064   34.1126 H   0  0  0  0  0  0  0  0  0  0  0  0
  -16.3736  -20.2934   35.5782 H   0  0  0  0  0  0  0  0  0  0  0  0
  -16.8705  -18.2906   37.4192 H   0  0  0  0  0  0  0  0  0  0  0  0
  -16.2213  -15.6671   37.4210 H   0  0  0  0  0  0  0  0  0  0  0  0
  1  2  2  0
  2  3  1  0
  3  4  1  0
  4  5  2  0
  5  6  1  0
  6  7  1  0
  7  8  2  0
  8  9  1  0
  9 10  1  0
 10 11  1  0
 11 12  1  0
  2 13  1  0
 13 14  1  0
 14 15  1  0
 15 16  2  0
 16 17  1  0
 17 18  2  0
 18 19  1  0
 19 20  2  0
 20 21  1  0
 21 22  1  0
  8  4  1  0
 22 14  2  0
 12  7  1  0
 21 17  1  0
  3 23  1  0
  3 24  1  0
  6 25  1  0
  9 26  1  0
  9 27  1  0
 10 28  1  0
 10 29  1  0
 11 30  1  0
 11 31  1  0
 12 32  1  0
 12 33  1  0
 13 34  1  0
 15 35  1  0
 19 36  1  0
 20 37  1  0
 22 38  1  0
M  END
>  <Energy>  (905) 
63.434010848163481

>  <compound_id>  (905) 
48979

>  <target_id>  (905) 
1

>  <reference_id>  (905) 
107

>  <inspiration_ids>  (905) 
[107, 7]

>  <energy_score>  (905) 
-58.89557055348581

>  <distance_score>  (905) 
9.64214851241329

>  <path>  (905) 
/opt/xchem-fragalysis-2/maxwin/BulkDock/SCRATCH/511022/C48979-P107/C48979-P107.minimised.mol

>  <scratch_subdir>  (905) 
/opt/xchem-fragalysis-2/maxwin/BulkDock/SCRATCH/511022/C48979-P107

>  <fragmenstein_runtime>  (905) 
22.389260053634644

>  <fragmenstein_outcome>  (905) 
too moved

>  <fragmenstein_mode>  (905) 
expansion

>  <fragmenstein_error>  (905) 


$$$$
C48979-P7
     RDKit          3D

 38 41  0  0  0  0  0  0  0  0999 V2000
  -12.2580  -10.4855   35.4998 O   0  0  0  0  0  0  0  0  0  0  0  0
  -13.2377   -9.8160   35.3345 C   0  0  0  0  0  0  0  0  0  0  0  0
  -13.1828   -8.2225   35.9132 C   0  0  0  0  0  0  0  0  0  0  0  0
  -11.7615   -6.6813   35.6134 C   0  0  0  0  0  0  0  0  0  0  0  0
  -10.7388   -6.1826   34.9936 N   0  0  0  0  0  0  0  0  0  0  0  0
  -10.3483   -5.2475   35.9305 N   0  0  0  0  0  0  0  0  0  0  0  0
  -11.2034   -4.2168   36.1586 C   0  0  0  0  0  0  0  0  0  0  0  0
  -12.3347   -4.9588   36.1224 C   0  0  0  0  0  0  0  0  0  0  0  0
  -13.6535   -4.4130   36.8190 C   0  0  0  0  0  0  0  0  0  0  0  0
  -13.3168   -3.1966   37.7127 C   0  0  0  0  0  0  0  0  0  0  0  0
  -12.3448   -2.2199   37.0244 C   0  0  0  0  0  0  0  0  0  0  0  0
  -10.9852   -2.8765   36.7312 C   0  0  0  0  0  0  0  0  0  0  0  0
  -14.5546  -10.1710   34.7875 N   0  0  0  0  0  0  0  0  0  0  0  0
  -15.0777  -11.4049   34.3895 C   0  0  0  0  0  0  0  0  0  0  0  0
  -16.4353  -11.5555   33.7506 C   0  0  0  0  0  0  0  0  0  0  0  0
  -17.1143  -12.6520   33.5517 N   0  0  0  0  0  0  0  0  0  0  0  0
  -16.5103  -13.8171   33.9252 C   0  0  0  0  0  0  0  0  0  0  0  0
  -17.0093  -15.0393   34.0092 N   0  0  0  0  0  0  0  0  0  0  0  0
  -15.9758  -15.8453   34.3986 C   0  0  0  0  0  0  0  0  0  0  0  0
  -14.8059  -15.1295   34.4547 C   0  0  0  0  0  0  0  0  0  0  0  0
  -15.1817  -13.8070   34.3321 N   0  0  0  0  0  0  0  0  0  0  0  0
  -14.5067  -12.6082   34.5962 C   0  0  0  0  0  0  0  0  0  0  0  0
  -14.2516   -7.8642   36.0242 H   0  0  0  0  0  0  0  0  0  0  0  0
  -13.2162   -8.4759   37.0311 H   0  0  0  0  0  0  0  0  0  0  0  0
   -9.3496   -5.2704   36.0958 H   0  0  0  0  0  0  0  0  0  0  0  0
  -14.1542   -5.1855   37.4137 H   0  0  0  0  0  0  0  0  0  0  0  0
  -14.4164   -4.0887   36.1083 H   0  0  0  0  0  0  0  0  0  0  0  0
  -14.2442   -2.6747   37.9750 H   0  0  0  0  0  0  0  0  0  0  0  0
  -12.8699   -3.5437   38.6529 H   0  0  0  0  0  0  0  0  0  0  0  0
  -12.1944   -1.3365   37.6552 H   0  0  0  0  0  0  0  0  0  0  0  0
  -12.7882   -1.8712   36.0848 H   0  0  0  0  0  0  0  0  0  0  0  0
  -10.4019   -2.2467   36.0521 H   0  0  0  0  0  0  0  0  0  0  0  0
  -10.4368   -2.9568   37.6753 H   0  0  0  0  0  0  0  0  0  0  0  0
  -15.1213   -9.3330   34.7162 H   0  0  0  0  0  0  0  0  0  0  0  0
  -16.9028  -10.6051   33.4425 H   0  0  0  0  0  0  0  0  0  0  0  0
  -16.1202  -16.9077   34.5409 H   0  0  0  0  0  0  0  0  0  0  0  0
  -13.7800  -15.4506   34.5300 H   0  0  0  0  0  0  0  0  0  0  0  0
  -13.5459  -12.6747   35.0653 H   0  0  0  0  0  0  0  0  0  0  0  0
  1  2  2  0
  2  3  1  0
  3  4  1  0
  4  5  2  0
  5  6  1  0
  6  7  1  0
  7  8  2  0
  8  9  1  0
  9 10  1  0
 10 11  1  0
 11 12  1  0
  2 13  1  0
 13 14  1  0
 14 15  1  0
 15 16  2  0
 16 17  1  0
 17 18  2  0
 18 19  1  0
 19 20  2  0
 20 21  1  0
 21 22  1  0
  8  4  1  0
 22 14  2  0
 12  7  1  0
 21 17  1  0
  3 23  1  0
  3 24  1  0
  6 25  1  0
  9 26  1  0
  9 27  1  0
 10 28  1  0
 10 29  1  0
 11 30  1  0
 11 31  1  0
 12 32  1  0
 12 33  1  0
 13 34  1  0
 15 35  1  0
 19 36  1  0
 20 37  1  0
 22 38  1  0
M  END
>  <Energy>  (906) 
293.86784601601676

>  <compound_id>  (906) 
48979

>  <target_id>  (906) 
1

>  <reference_id>  (906) 
7

>  <inspiration_ids>  (906) 
[107, 7]

>  <energy_score>  (906) 
171.53826461436648

>  <distance_score>  (906) 
10.223059495548897

>  <path>  (906) 
/opt/xchem-fragalysis-2/maxwin/BulkDock/SCRATCH/511022/C48979-P7/C48979-P7.minimised.mol

>  <scratch_subdir>  (906) 
/opt/xchem-fragalysis-2/maxwin/BulkDock/SCRATCH/511022/C48979-P7

>  <fragmenstein_runtime>  (906) 
14.409708976745605

>  <fragmenstein_outcome>  (906) 
too moved

>  <fragmenstein_mode>  (906) 
expansion

>  <fragmenstein_error>  (906) 


$$$$
C45311-P107
     RDKit          3D

 41 43  0  0  0  0  0  0  0  0999 V2000
  -16.7390  -15.0956   38.3175 C   0  0  0  0  0  0  0  0  0  0  0  0
  -15.8514  -14.6781   37.1437 C   0  0  0  0  0  0  0  0  0  0  0  0
  -16.5110  -13.5063   36.3285 C   0  0  0  0  0  0  0  0  0  0  0  0
  -16.2238  -12.1096   36.9055 N   0  0  0  0  0  0  0  0  0  0  0  0
  -15.1236  -12.1508   35.8829 C   0  0  0  0  0  0  0  0  0  0  0  0
  -16.9556  -10.8808   36.7929 C   0  0  0  0  0  0  0  0  0  0  0  0
  -17.9339  -10.6100   36.1432 O   0  0  0  0  0  0  0  0  0  0  0  0
  -16.3753   -9.7625   37.6387 C   0  0  0  0  0  0  0  0  0  0  0  0
  -16.9127   -8.4337   37.7485 C   0  0  0  0  0  0  0  0  0  0  0  0
  -16.0507   -7.7318   38.5571 C   0  0  0  0  0  0  0  0  0  0  0  0
  -15.0927   -8.6263   38.9239 N   0  0  0  0  0  0  0  0  0  0  0  0
  -15.2247   -9.8303   38.3417 N   0  0  0  0  0  0  0  0  0  0  0  0
  -15.4878  -15.8716   36.3612 N   0  0  0  0  0  0  0  0  0  0  0  0
  -14.4274  -16.8244   36.5357 C   0  0  0  0  0  0  0  0  0  0  0  0
  -13.5187  -16.8488   37.3162 O   0  0  0  0  0  0  0  0  0  0  0  0
  -14.4426  -17.9876   35.5661 C   0  0  0  0  0  0  0  0  0  0  0  0
  -13.1255  -18.6225   35.1707 C   0  0  0  0  0  0  0  0  0  0  0  0
  -12.9503  -19.6986   34.4666 N   0  0  0  0  0  0  0  0  0  0  0  0
  -14.0738  -20.3217   34.0228 C   0  0  0  0  0  0  0  0  0  0  0  0
  -14.1773  -21.3534   33.2152 N   0  0  0  0  0  0  0  0  0  0  0  0
  -15.5156  -21.5970   33.0816 C   0  0  0  0  0  0  0  0  0  0  0  0
  -16.2505  -20.6574   33.7677 C   0  0  0  0  0  0  0  0  0  0  0  0
  -15.3300  -19.8237   34.3456 N   0  0  0  0  0  0  0  0  0  0  0  0
  -15.5120  -18.6763   35.1208 C   0  0  0  0  0  0  0  0  0  0  0  0
  -16.2387  -15.8495   38.9353 H   0  0  0  0  0  0  0  0  0  0  0  0
  -17.6794  -15.5328   37.9641 H   0  0  0  0  0  0  0  0  0  0  0  0
  -16.9747  -14.2383   38.9563 H   0  0  0  0  0  0  0  0  0  0  0  0
  -14.9100  -14.3271   37.5803 H   0  0  0  0  0  0  0  0  0  0  0  0
  -16.4700  -13.6370   35.2313 H   0  0  0  0  0  0  0  0  0  0  0  0
  -17.5965  -13.5896   36.4944 H   0  0  0  0  0  0  0  0  0  0  0  0
  -14.4512  -11.3291   36.1549 H   0  0  0  0  0  0  0  0  0  0  0  0
  -15.4944  -11.8774   34.8818 H   0  0  0  0  0  0  0  0  0  0  0  0
  -14.4698  -13.0305   35.8468 H   0  0  0  0  0  0  0  0  0  0  0  0
  -17.8161   -8.0681   37.2799 H   0  0  0  0  0  0  0  0  0  0  0  0
  -16.0547   -6.7148   38.9226 H   0  0  0  0  0  0  0  0  0  0  0  0
  -14.3051   -8.4828   39.5493 H   0  0  0  0  0  0  0  0  0  0  0  0
  -16.1278  -16.2153   35.6553 H   0  0  0  0  0  0  0  0  0  0  0  0
  -12.2260  -18.0965   35.5351 H   0  0  0  0  0  0  0  0  0  0  0  0
  -15.8763  -22.4334   32.4928 H   0  0  0  0  0  0  0  0  0  0  0  0
  -17.3155  -20.5242   33.8865 H   0  0  0  0  0  0  0  0  0  0  0  0
  -16.5347  -18.4174   35.3643 H   0  0  0  0  0  0  0  0  0  0  0  0
  1  2  1  0
  2  3  1  0
  3  4  1  0
  4  5  1  0
  4  6  1  0
  6  7  2  0
  6  8  1  0
  8  9  1  0
  9 10  2  0
 10 11  1  0
 11 12  1  0
  2 13  1  0
 13 14  1  0
 14 15  2  0
 14 16  1  0
 16 17  1  0
 17 18  2  0
 18 19  1  0
 19 20  2  0
 20 21  1  0
 21 22  2  0
 22 23  1  0
 23 24  1  0
 12  8  2  0
 24 16  2  0
 23 19  1  0
  1 25  1  0
  1 26  1  0
  1 27  1  0
  2 28  1  0
  3 29  1  0
  3 30  1  0
  5 31  1  0
  5 32  1  0
  5 33  1  0
  9 34  1  0
 10 35  1  0
 11 36  1  0
 13 37  1  0
 17 38  1  0
 21 39  1  0
 22 40  1  0
 24 41  1  0
M  END
>  <Energy>  (907) 
134.05003732374965

>  <compound_id>  (907) 
45311

>  <target_id>  (907) 
1

>  <reference_id>  (907) 
107

>  <inspiration_ids>  (907) 
[107, 7]

>  <energy_score>  (907) 
34.672392376240225

>  <distance_score>  (907) 
8.193621467466782

>  <path>  (907) 
/opt/xchem-fragalysis-2/maxwin/BulkDock/SCRATCH/511022/C45311-P107/C45311-P107.minimised.mol

>  <scratch_subdir>  (907) 
/opt/xchem-fragalysis-2/maxwin/BulkDock/SCRATCH/511022/C45311-P107

>  <fragmenstein_runtime>  (907) 
28.22505235671997

>  <fragmenstein_outcome>  (907) 
too moved

>  <fragmenstein_mode>  (907) 
expansion

>  <fragmenstein_error>  (907) 


$$$$
C45311-P7
     RDKit          3D

 41 43  0  0  0  0  0  0  0  0999 V2000
  -13.7734  -15.1072   33.8670 C   0  0  0  0  0  0  0  0  0  0  0  0
  -13.2140  -14.0122   32.8433 C   0  0  0  0  0  0  0  0  0  0  0  0
  -13.8360  -12.3072   33.8809 C   0  0  0  0  0  0  0  0  0  0  0  0
  -13.4518  -10.3885   34.0680 N   0  0  0  0  0  0  0  0  0  0  0  0
  -14.6149  -10.4756   34.9544 C   0  0  0  0  0  0  0  0  0  0  0  0
  -12.0917   -9.4720   34.8926 C   0  0  0  0  0  0  0  0  0  0  0  0
  -11.3316  -10.1691   35.5127 O   0  0  0  0  0  0  0  0  0  0  0  0
  -11.5878   -7.4778   35.0799 C   0  0  0  0  0  0  0  0  0  0  0  0
  -11.8978   -5.6565   35.6768 C   0  0  0  0  0  0  0  0  0  0  0  0
  -11.0119   -4.6867   35.8580 C   0  0  0  0  0  0  0  0  0  0  0  0
  -10.1725   -5.6487   35.5688 N   0  0  0  0  0  0  0  0  0  0  0  0
  -10.5924   -6.6762   34.4635 N   0  0  0  0  0  0  0  0  0  0  0  0
  -12.8438  -14.9856   31.1992 N   0  0  0  0  0  0  0  0  0  0  0  0
  -12.6948  -16.5745   30.8687 C   0  0  0  0  0  0  0  0  0  0  0  0
  -12.9324  -17.1569   31.7728 O   0  0  0  0  0  0  0  0  0  0  0  0
  -12.3396  -17.9149   29.2543 C   0  0  0  0  0  0  0  0  0  0  0  0
  -12.0369  -19.7645   28.9338 C   0  0  0  0  0  0  0  0  0  0  0  0
  -10.9778  -20.5144   29.5116 N   0  0  0  0  0  0  0  0  0  0  0  0
  -11.5628  -21.6823   29.7357 C   0  0  0  0  0  0  0  0  0  0  0  0
  -11.2124  -22.7365   30.4279 N   0  0  0  0  0  0  0  0  0  0  0  0
  -11.4509  -22.3180   31.6942 C   0  0  0  0  0  0  0  0  0  0  0  0
  -12.4908  -21.4247   31.6243 C   0  0  0  0  0  0  0  0  0  0  0  0
  -12.7280  -21.1328   30.1816 N   0  0  0  0  0  0  0  0  0  0  0  0
  -13.0947  -19.4696   29.3572 C   0  0  0  0  0  0  0  0  0  0  0  0
  -14.2194  -15.9670   33.4038 H   0  0  0  0  0  0  0  0  0  0  0  0
  -14.5385  -14.6798   34.5188 H   0  0  0  0  0  0  0  0  0  0  0  0
  -12.9552  -15.5175   34.4655 H   0  0  0  0  0  0  0  0  0  0  0  0
  -12.1846  -14.2487   33.0369 H   0  0  0  0  0  0  0  0  0  0  0  0
  -14.8755  -12.3044   33.5209 H   0  0  0  0  0  0  0  0  0  0  0  0
  -13.7426  -12.6588   34.9125 H   0  0  0  0  0  0  0  0  0  0  0  0
  -14.7680   -9.4568   35.3309 H   0  0  0  0  0  0  0  0  0  0  0  0
  -14.4226  -11.0599   35.8598 H   0  0  0  0  0  0  0  0  0  0  0  0
  -15.5447  -10.7203   34.4340 H   0  0  0  0  0  0  0  0  0  0  0  0
  -12.8745   -5.3121   36.0988 H   0  0  0  0  0  0  0  0  0  0  0  0
  -10.9321   -3.7120   36.3146 H   0  0  0  0  0  0  0  0  0  0  0  0
   -9.1647   -5.6073   35.7611 H   0  0  0  0  0  0  0  0  0  0  0  0
  -12.7115  -14.5149   30.3460 H   0  0  0  0  0  0  0  0  0  0  0  0
  -12.3393  -20.4804   28.0230 H   0  0  0  0  0  0  0  0  0  0  0  0
  -11.0474  -22.8067   32.5713 H   0  0  0  0  0  0  0  0  0  0  0  0
  -13.1478  -21.0865   32.4131 H   0  0  0  0  0  0  0  0  0  0  0  0
  -14.1875  -19.3512   29.4883 H   0  0  0  0  0  0  0  0  0  0  0  0
  1  2  1  0
  2  3  1  0
  3  4  1  0
  4  5  1  0
  4  6  1  0
  6  7  2  0
  6  8  1  0
  8  9  1  0
  9 10  2  0
 10 11  1  0
 11 12  1  0
  2 13  1  0
 13 14  1  0
 14 15  2  0
 14 16  1  0
 16 17  1  0
 17 18  2  0
 18 19  1  0
 19 20  2  0
 20 21  1  0
 21 22  2  0
 22 23  1  0
 23 24  1  0
 12  8  2  0
 24 16  2  0
 23 19  1  0
  1 25  1  0
  1 26  1  0
  1 27  1  0
  2 28  1  0
  3 29  1  0
  3 30  1  0
  5 31  1  0
  5 32  1  0
  5 33  1  0
  9 34  1  0
 10 35  1  0
 11 36  1  0
 13 37  1  0
 17 38  1  0
 21 39  1  0
 22 40  1  0
 24 41  1  0
M  END
>  <Energy>  (908) 
1454.0892553530011

>  <compound_id>  (908) 
45311

>  <target_id>  (908) 
1

>  <reference_id>  (908) 
7

>  <inspiration_ids>  (908) 
[107, 7]

>  <energy_score>  (908) 
1354.711610405493

>  <distance_score>  (908) 
4.861044521273262

>  <path>  (908) 
/opt/xchem-fragalysis-2/maxwin/BulkDock/SCRATCH/511022/C45311-P7/C45311-P7.minimised.mol

>  <scratch_subdir>  (908) 
/opt/xchem-fragalysis-2/maxwin/BulkDock/SCRATCH/511022/C45311-P7

>  <fragmenstein_runtime>  (908) 
14.585940599441528

>  <fragmenstein_outcome>  (908) 
too moved

>  <fragmenstein_mode>  (908) 
expansion

>  <fragmenstein_error>  (908) 


$$$$
C48980-P107
     RDKit          3D

 38 41  0  0  0  0  0  0  0  0999 V2000
  -15.4311  -13.1663   38.2380 O   0  0  0  0  0  0  0  0  0  0  0  0
  -15.1679  -12.8112   37.1237 C   0  0  0  0  0  0  0  0  0  0  0  0
  -14.7366  -11.5140   36.6183 N   0  0  0  0  0  0  0  0  0  0  0  0
  -14.3918  -10.2549   37.3315 C   0  0  0  0  0  0  0  0  0  0  0  0
  -13.2408   -9.4821   36.5667 C   0  0  0  0  0  0  0  0  0  0  0  0
  -12.1821  -10.3152   36.1753 N   0  0  0  0  0  0  0  0  0  0  0  0
  -11.3451   -9.4307   35.2087 N   0  0  0  0  0  0  0  0  0  0  0  0
  -11.9018   -7.7152   35.2413 C   0  0  0  0  0  0  0  0  0  0  0  0
  -13.1792   -7.7502   35.6456 C   0  0  0  0  0  0  0  0  0  0  0  0
  -14.0859   -6.2339   35.6560 C   0  0  0  0  0  0  0  0  0  0  0  0
  -13.1986   -4.9004   36.1695 C   0  0  0  0  0  0  0  0  0  0  0  0
  -12.0688   -4.8921   35.2191 C   0  0  0  0  0  0  0  0  0  0  0  0
  -11.3083   -6.2598   34.8456 C   0  0  0  0  0  0  0  0  0  0  0  0
  -15.2645  -13.8464   36.0572 C   0  0  0  0  0  0  0  0  0  0  0  0
  -15.7962  -13.7282   34.7860 C   0  0  0  0  0  0  0  0  0  0  0  0
  -15.7987  -14.9146   34.1087 N   0  0  0  0  0  0  0  0  0  0  0  0
  -15.1404  -15.7717   34.8482 C   0  0  0  0  0  0  0  0  0  0  0  0
  -14.7619  -17.0525   34.5234 N   0  0  0  0  0  0  0  0  0  0  0  0
  -14.1992  -17.7373   35.4673 C   0  0  0  0  0  0  0  0  0  0  0  0
  -14.0000  -17.2793   36.8643 C   0  0  0  0  0  0  0  0  0  0  0  0
  -14.3821  -16.0167   37.1201 C   0  0  0  0  0  0  0  0  0  0  0  0
  -14.9018  -15.2110   36.1080 N   0  0  0  0  0  0  0  0  0  0  0  0
  -14.5228  -11.5973   35.6315 H   0  0  0  0  0  0  0  0  0  0  0  0
  -15.3002   -9.6601   37.4473 H   0  0  0  0  0  0  0  0  0  0  0  0
  -14.0291  -10.5227   38.3295 H   0  0  0  0  0  0  0  0  0  0  0  0
  -10.7067   -9.8268   34.5242 H   0  0  0  0  0  0  0  0  0  0  0  0
  -14.1733   -6.1013   34.5984 H   0  0  0  0  0  0  0  0  0  0  0  0
  -15.0472   -6.3472   36.1790 H   0  0  0  0  0  0  0  0  0  0  0  0
  -13.7342   -3.9598   36.3146 H   0  0  0  0  0  0  0  0  0  0  0  0
  -12.8291   -4.7735   37.2021 H   0  0  0  0  0  0  0  0  0  0  0  0
  -12.3733   -4.3748   34.3420 H   0  0  0  0  0  0  0  0  0  0  0  0
  -11.4080   -4.1556   35.6969 H   0  0  0  0  0  0  0  0  0  0  0  0
  -10.9232   -6.5188   33.8756 H   0  0  0  0  0  0  0  0  0  0  0  0
  -10.3823   -5.9624   35.2581 H   0  0  0  0  0  0  0  0  0  0  0  0
  -16.2211  -12.8427   34.3298 H   0  0  0  0  0  0  0  0  0  0  0  0
  -13.8493  -18.7611   35.2535 H   0  0  0  0  0  0  0  0  0  0  0  0
  -13.5896  -17.9568   37.5980 H   0  0  0  0  0  0  0  0  0  0  0  0
  -14.3189  -15.5715   38.1021 H   0  0  0  0  0  0  0  0  0  0  0  0
  1  2  2  0
  2  3  1  0
  3  4  1  0
  4  5  1  0
  5  6  2  0
  6  7  1  0
  7  8  1  0
  8  9  2  0
  9 10  1  0
 10 11  1  0
 11 12  1  0
 12 13  1  0
  2 14  1  0
 14 15  2  0
 15 16  1  0
 16 17  2  0
 17 18  1  0
 18 19  2  0
 19 20  1  0
 20 21  2  0
 21 22  1  0
  9  5  1  0
 22 14  1  0
 13  8  1  0
 22 17  1  0
  3 23  1  0
  4 24  1  0
  4 25  1  0
  7 26  1  0
 10 27  1  0
 10 28  1  0
 11 29  1  0
 11 30  1  0
 12 31  1  0
 12 32  1  0
 13 33  1  0
 13 34  1  0
 15 35  1  0
 19 36  1  0
 20 37  1  0
 21 38  1  0
M  END
>  <Energy>  (909) 
228.89126515682548

>  <compound_id>  (909) 
48980

>  <target_id>  (909) 
1

>  <reference_id>  (909) 
107

>  <inspiration_ids>  (909) 
[107, 7]

>  <energy_score>  (909) 
172.5863354474744

>  <distance_score>  (909) 
9.502875744592519

>  <path>  (909) 
/opt/xchem-fragalysis-2/maxwin/BulkDock/SCRATCH/511022/C48980-P107/C48980-P107.minimised.mol

>  <scratch_subdir>  (909) 
/opt/xchem-fragalysis-2/maxwin/BulkDock/SCRATCH/511022/C48980-P107

>  <fragmenstein_runtime>  (909) 
25.002652406692505

>  <fragmenstein_outcome>  (909) 
too moved

>  <fragmenstein_mode>  (909) 
expansion

>  <fragmenstein_error>  (909) 


$$$$
C48980-P7
     RDKit          3D

 38 41  0  0  0  0  0  0  0  0999 V2000
  -14.0182  -11.3766   34.2866 O   0  0  0  0  0  0  0  0  0  0  0  0
  -14.0749  -10.9345   35.3875 C   0  0  0  0  0  0  0  0  0  0  0  0
  -13.5149   -9.7037   35.9423 N   0  0  0  0  0  0  0  0  0  0  0  0
  -12.7829   -8.5721   35.2692 C   0  0  0  0  0  0  0  0  0  0  0  0
  -11.6810   -6.8199   35.5189 C   0  0  0  0  0  0  0  0  0  0  0  0
  -10.6853   -6.1883   34.9511 N   0  0  0  0  0  0  0  0  0  0  0  0
  -10.3483   -5.2732   35.9265 N   0  0  0  0  0  0  0  0  0  0  0  0
  -11.2463   -4.2888   36.1504 C   0  0  0  0  0  0  0  0  0  0  0  0
  -12.3315   -5.0970   36.0452 C   0  0  0  0  0  0  0  0  0  0  0  0
  -13.7352   -4.5945   36.7283 C   0  0  0  0  0  0  0  0  0  0  0  0
  -13.6188   -3.1231   37.1788 C   0  0  0  0  0  0  0  0  0  0  0  0
  -12.2516   -2.7533   37.7658 C   0  0  0  0  0  0  0  0  0  0  0  0
  -11.1347   -2.9405   36.7265 C   0  0  0  0  0  0  0  0  0  0  0  0
  -14.9465  -11.7742   36.2188 C   0  0  0  0  0  0  0  0  0  0  0  0
  -15.4368  -11.6799   37.5000 C   0  0  0  0  0  0  0  0  0  0  0  0
  -16.1910  -12.7781   37.8485 N   0  0  0  0  0  0  0  0  0  0  0  0
  -16.2266  -13.5812   36.8088 C   0  0  0  0  0  0  0  0  0  0  0  0
  -16.7423  -14.8489   36.7450 N   0  0  0  0  0  0  0  0  0  0  0  0
  -16.4666  -15.5435   35.6879 C   0  0  0  0  0  0  0  0  0  0  0  0
  -15.6652  -15.0782   34.5443 C   0  0  0  0  0  0  0  0  0  0  0  0
  -15.2301  -13.8132   34.6202 C   0  0  0  0  0  0  0  0  0  0  0  0
  -15.4741  -13.0326   35.7643 N   0  0  0  0  0  0  0  0  0  0  0  0
  -13.8277   -9.5997   36.8981 H   0  0  0  0  0  0  0  0  0  0  0  0
  -13.6900   -8.6487   34.6145 H   0  0  0  0  0  0  0  0  0  0  0  0
  -11.9871   -9.2650   34.8510 H   0  0  0  0  0  0  0  0  0  0  0  0
   -9.3526   -5.2592   36.1041 H   0  0  0  0  0  0  0  0  0  0  0  0
  -14.6000   -4.7024   36.0658 H   0  0  0  0  0  0  0  0  0  0  0  0
  -14.0189   -5.1929   37.6008 H   0  0  0  0  0  0  0  0  0  0  0  0
  -13.7798   -2.4841   36.3114 H   0  0  0  0  0  0  0  0  0  0  0  0
  -14.4141   -2.8969   37.8976 H   0  0  0  0  0  0  0  0  0  0  0  0
  -12.2634   -1.7091   38.0984 H   0  0  0  0  0  0  0  0  0  0  0  0
  -12.0535   -3.3723   38.6500 H   0  0  0  0  0  0  0  0  0  0  0  0
  -11.2474   -2.1990   35.9265 H   0  0  0  0  0  0  0  0  0  0  0  0
  -10.1750   -2.7519   37.2039 H   0  0  0  0  0  0  0  0  0  0  0  0
  -15.2730  -10.8884   38.2202 H   0  0  0  0  0  0  0  0  0  0  0  0
  -16.8581  -16.5709   35.6067 H   0  0  0  0  0  0  0  0  0  0  0  0
  -15.4693  -15.7376   33.7230 H   0  0  0  0  0  0  0  0  0  0  0  0
  -14.6447  -13.3872   33.8192 H   0  0  0  0  0  0  0  0  0  0  0  0
  1  2  2  0
  2  3  1  0
  3  4  1  0
  4  5  1  0
  5  6  2  0
  6  7  1  0
  7  8  1  0
  8  9  2  0
  9 10  1  0
 10 11  1  0
 11 12  1  0
 12 13  1  0
  2 14  1  0
 14 15  2  0
 15 16  1  0
 16 17  2  0
 17 18  1  0
 18 19  2  0
 19 20  1  0
 20 21  2  0
 21 22  1  0
  9  5  1  0
 22 14  1  0
 13  8  1  0
 22 17  1  0
  3 23  1  0
  4 24  1  0
  4 25  1  0
  7 26  1  0
 10 27  1  0
 10 28  1  0
 11 29  1  0
 11 30  1  0
 12 31  1  0
 12 32  1  0
 13 33  1  0
 13 34  1  0
 15 35  1  0
 19 36  1  0
 20 37  1  0
 21 38  1  0
M  END
>  <Energy>  (910) 
272.21091094170919

>  <compound_id>  (910) 
48980

>  <target_id>  (910) 
1

>  <reference_id>  (910) 
7

>  <inspiration_ids>  (910) 
[107, 7]

>  <energy_score>  (910) 
215.9059812323546

>  <distance_score>  (910) 
10.295370072397791

>  <path>  (910) 
/opt/xchem-fragalysis-2/maxwin/BulkDock/SCRATCH/511022/C48980-P7/C48980-P7.minimised.mol

>  <scratch_subdir>  (910) 
/opt/xchem-fragalysis-2/maxwin/BulkDock/SCRATCH/511022/C48980-P7

>  <fragmenstein_runtime>  (910) 
13.013527154922485

>  <fragmenstein_outcome>  (910) 
too moved

>  <fragmenstein_mode>  (910) 
expansion

>  <fragmenstein_error>  (910) 


$$$$
C48981-P107
     RDKit          3D

 35 38  0  0  0  0  0  0  0  0999 V2000
  -15.6159  -11.7451   35.9448 O   0  0  0  0  0  0  0  0  0  0  0  0
  -15.5011  -12.2262   37.0319 C   0  0  0  0  0  0  0  0  0  0  0  0
  -15.0461  -11.6521   38.2670 N   0  0  0  0  0  0  0  0  0  0  0  0
  -14.4891  -10.3375   38.5629 C   0  0  0  0  0  0  0  0  0  0  0  0
  -15.3374   -9.0917   38.6210 C   0  0  0  0  0  0  0  0  0  0  0  0
  -16.4284   -8.8901   37.8521 N   0  0  0  0  0  0  0  0  0  0  0  0
  -16.7882   -7.5982   38.0598 N   0  0  0  0  0  0  0  0  0  0  0  0
  -15.9603   -6.9831   38.9230 C   0  0  0  0  0  0  0  0  0  0  0  0
  -15.0387   -7.8990   39.3278 C   0  0  0  0  0  0  0  0  0  0  0  0
  -14.0827   -7.2987   40.2816 C   0  0  0  0  0  0  0  0  0  0  0  0
  -14.4362   -5.7697   40.1952 C   0  0  0  0  0  0  0  0  0  0  0  0
  -15.8408   -5.6444   39.5091 C   0  0  0  0  0  0  0  0  0  0  0  0
  -15.7635  -13.6753   37.1679 C   0  0  0  0  0  0  0  0  0  0  0  0
  -16.4415  -14.4338   38.1016 C   0  0  0  0  0  0  0  0  0  0  0  0
  -16.2787  -15.7889   37.8995 N   0  0  0  0  0  0  0  0  0  0  0  0
  -15.5089  -15.9143   36.8403 C   0  0  0  0  0  0  0  0  0  0  0  0
  -14.9746  -17.0582   36.2951 N   0  0  0  0  0  0  0  0  0  0  0  0
  -14.1403  -16.8824   35.3128 C   0  0  0  0  0  0  0  0  0  0  0  0
  -13.7918  -15.5704   34.7233 C   0  0  0  0  0  0  0  0  0  0  0  0
  -12.6116  -15.4206   33.5476 Cl  0  0  0  0  0  0  0  0  0  0  0  0
  -14.3863  -14.4962   35.2371 C   0  0  0  0  0  0  0  0  0  0  0  0
  -15.2187  -14.6457   36.3253 N   0  0  0  0  0  0  0  0  0  0  0  0
  -15.0017  -12.3743   38.9681 H   0  0  0  0  0  0  0  0  0  0  0  0
  -13.7177  -10.1671   37.8024 H   0  0  0  0  0  0  0  0  0  0  0  0
  -13.9709  -10.4480   39.5229 H   0  0  0  0  0  0  0  0  0  0  0  0
  -17.6068   -7.2409   37.5772 H   0  0  0  0  0  0  0  0  0  0  0  0
  -13.0378   -7.4819   40.0193 H   0  0  0  0  0  0  0  0  0  0  0  0
  -14.2683   -7.6714   41.2943 H   0  0  0  0  0  0  0  0  0  0  0  0
  -14.4180   -5.2907   41.1795 H   0  0  0  0  0  0  0  0  0  0  0  0
  -13.6866   -5.2621   39.5747 H   0  0  0  0  0  0  0  0  0  0  0  0
  -16.6195   -5.4659   40.2566 H   0  0  0  0  0  0  0  0  0  0  0  0
  -15.8485   -4.8430   38.7659 H   0  0  0  0  0  0  0  0  0  0  0  0
  -17.0284  -14.0706   38.9361 H   0  0  0  0  0  0  0  0  0  0  0  0
  -13.6479  -17.7621   34.8656 H   0  0  0  0  0  0  0  0  0  0  0  0
  -14.1939  -13.4873   34.8895 H   0  0  0  0  0  0  0  0  0  0  0  0
  1  2  2  0
  2  3  1  0
  3  4  1  0
  4  5  1  0
  5  6  2  0
  6  7  1  0
  7  8  1  0
  8  9  2  0
  9 10  1  0
 10 11  1  0
 11 12  1  0
  2 13  1  0
 13 14  2  0
 14 15  1  0
 15 16  2  0
 16 17  1  0
 17 18  2  0
 18 19  1  0
 19 20  1  0
 19 21  2  0
 21 22  1  0
  9  5  1  0
 22 13  1  0
 12  8  1  0
 22 16  1  0
  3 23  1  0
  4 24  1  0
  4 25  1  0
  7 26  1  0
 10 27  1  0
 10 28  1  0
 11 29  1  0
 11 30  1  0
 12 31  1  0
 12 32  1  0
 14 33  1  0
 18 34  1  0
 21 35  1  0
M  END
>  <Energy>  (911) 
33.763584001635316

>  <compound_id>  (911) 
48981

>  <target_id>  (911) 
1

>  <reference_id>  (911) 
107

>  <inspiration_ids>  (911) 
[107, 7]

>  <energy_score>  (911) 
-21.905748131241694

>  <distance_score>  (911) 
10.119144846944643

>  <path>  (911) 
/opt/xchem-fragalysis-2/maxwin/BulkDock/SCRATCH/511022/C48981-P107/C48981-P107.minimised.mol

>  <scratch_subdir>  (911) 
/opt/xchem-fragalysis-2/maxwin/BulkDock/SCRATCH/511022/C48981-P107

>  <fragmenstein_runtime>  (911) 
16.87362241744995

>  <fragmenstein_outcome>  (911) 
too moved

>  <fragmenstein_mode>  (911) 
expansion

>  <fragmenstein_error>  (911) 


$$$$
C48981-P7
     RDKit          3D

 35 38  0  0  0  0  0  0  0  0999 V2000
  -12.9857  -11.3234   36.0741 O   0  0  0  0  0  0  0  0  0  0  0  0
  -13.7438  -10.6674   35.4293 C   0  0  0  0  0  0  0  0  0  0  0  0
  -13.8528   -9.2170   35.2751 N   0  0  0  0  0  0  0  0  0  0  0  0
  -13.1007   -8.0674   35.9758 C   0  0  0  0  0  0  0  0  0  0  0  0
  -11.8629   -6.3113   35.6549 C   0  0  0  0  0  0  0  0  0  0  0  0
  -10.6554   -5.7260   35.6276 N   0  0  0  0  0  0  0  0  0  0  0  0
  -10.7115   -4.4775   36.2352 N   0  0  0  0  0  0  0  0  0  0  0  0
  -11.8575   -3.8492   36.4291 C   0  0  0  0  0  0  0  0  0  0  0  0
  -12.7420   -4.8422   36.2747 C   0  0  0  0  0  0  0  0  0  0  0  0
  -14.0741   -4.4734   36.8929 C   0  0  0  0  0  0  0  0  0  0  0  0
  -13.6963   -3.1610   37.6754 C   0  0  0  0  0  0  0  0  0  0  0  0
  -12.3333   -2.6387   37.0994 C   0  0  0  0  0  0  0  0  0  0  0  0
  -14.8385  -11.4406   34.7420 C   0  0  0  0  0  0  0  0  0  0  0  0
  -16.1421  -10.9624   34.7391 C   0  0  0  0  0  0  0  0  0  0  0  0
  -17.0766  -11.9297   34.9885 N   0  0  0  0  0  0  0  0  0  0  0  0
  -16.3938  -13.0353   35.1454 C   0  0  0  0  0  0  0  0  0  0  0  0
  -16.8157  -14.2318   35.6592 N   0  0  0  0  0  0  0  0  0  0  0  0
  -16.0159  -15.2365   35.4920 C   0  0  0  0  0  0  0  0  0  0  0  0
  -14.7651  -15.1992   34.7028 C   0  0  0  0  0  0  0  0  0  0  0  0
  -13.8408  -16.6209   34.5698 Cl  0  0  0  0  0  0  0  0  0  0  0  0
  -14.3643  -13.9774   34.3262 C   0  0  0  0  0  0  0  0  0  0  0  0
  -15.0895  -12.8433   34.6730 N   0  0  0  0  0  0  0  0  0  0  0  0
  -14.6627   -9.0042   34.7154 H   0  0  0  0  0  0  0  0  0  0  0  0
  -13.1063   -8.4685   37.0649 H   0  0  0  0  0  0  0  0  0  0  0  0
  -14.1194   -7.5776   36.2962 H   0  0  0  0  0  0  0  0  0  0  0  0
   -9.8294   -4.0775   36.4794 H   0  0  0  0  0  0  0  0  0  0  0  0
  -14.4606   -5.2347   37.5761 H   0  0  0  0  0  0  0  0  0  0  0  0
  -14.8409   -4.2599   36.1469 H   0  0  0  0  0  0  0  0  0  0  0  0
  -14.4858   -2.4053   37.6157 H   0  0  0  0  0  0  0  0  0  0  0  0
  -13.5613   -3.4102   38.7362 H   0  0  0  0  0  0  0  0  0  0  0  0
  -11.6734   -2.2899   37.8977 H   0  0  0  0  0  0  0  0  0  0  0  0
  -12.5035   -1.8315   36.3807 H   0  0  0  0  0  0  0  0  0  0  0  0
  -16.4556   -9.9283   34.8008 H   0  0  0  0  0  0  0  0  0  0  0  0
  -16.2906  -16.2126   35.9261 H   0  0  0  0  0  0  0  0  0  0  0  0
  -13.5090  -13.8527   33.7121 H   0  0  0  0  0  0  0  0  0  0  0  0
  1  2  2  0
  2  3  1  0
  3  4  1  0
  4  5  1  0
  5  6  2  0
  6  7  1  0
  7  8  1  0
  8  9  2  0
  9 10  1  0
 10 11  1  0
 11 12  1  0
  2 13  1  0
 13 14  2  0
 14 15  1  0
 15 16  2  0
 16 17  1  0
 17 18  2  0
 18 19  1  0
 19 20  1  0
 19 21  2  0
 21 22  1  0
  9  5  1  0
 22 13  1  0
 12  8  1  0
 22 16  1  0
  3 23  1  0
  4 24  1  0
  4 25  1  0
  7 26  1  0
 10 27  1  0
 10 28  1  0
 11 29  1  0
 11 30  1  0
 12 31  1  0
 12 32  1  0
 14 33  1  0
 18 34  1  0
 21 35  1  0
M  END
>  <Energy>  (912) 
312.62889559760697

>  <compound_id>  (912) 
48981

>  <target_id>  (912) 
1

>  <reference_id>  (912) 
7

>  <inspiration_ids>  (912) 
[107, 7]

>  <energy_score>  (912) 
256.9595634647321

>  <distance_score>  (912) 
10.06101443353076

>  <path>  (912) 
/opt/xchem-fragalysis-2/maxwin/BulkDock/SCRATCH/511022/C48981-P7/C48981-P7.minimised.mol

>  <scratch_subdir>  (912) 
/opt/xchem-fragalysis-2/maxwin/BulkDock/SCRATCH/511022/C48981-P7

>  <fragmenstein_runtime>  (912) 
12.794677495956421

>  <fragmenstein_outcome>  (912) 
too moved

>  <fragmenstein_mode>  (912) 
expansion

>  <fragmenstein_error>  (912) 


$$$$
C25453-P71
     RDKit          3D

 43 44  0  0  0  0  0  0  0  0999 V2000
    7.8150   -5.6919   12.2589 C   0  0  0  0  0  0  0  0  0  0  0  0
    7.6060   -6.3887   13.5880 C   0  0  0  0  0  0  0  0  0  0  0  0
    8.1871   -7.4062   13.8273 O   0  0  0  0  0  0  0  0  0  0  0  0
    6.7023   -5.6170   14.3886 N   0  0  0  0  0  0  0  0  0  0  0  0
    6.1380   -5.8729   15.6933 C   0  0  0  0  0  0  0  0  0  0  0  0
    7.1541   -5.5590   16.8182 C   0  0  0  0  0  0  0  0  0  0  0  0
    6.8423   -4.0957   17.2503 C   0  0  0  0  0  0  0  0  0  0  0  0
    7.0099   -6.5967   18.1126 C   0  0  0  0  0  0  0  0  0  0  0  0
    8.2086   -7.6552   19.0096 N   0  0  0  0  0  0  0  0  0  0  0  0
    9.0998   -6.3420   18.4248 C   0  0  0  0  0  0  0  0  0  0  0  0
    8.3627   -9.4855   18.6605 C   0  0  0  0  0  0  0  0  0  0  0  0
    9.1328   -9.9766   17.8305 O   0  0  0  0  0  0  0  0  0  0  0  0
    7.1969  -10.8102   19.4572 C   0  0  0  0  0  0  0  0  0  0  0  0
    6.2417  -11.6084   20.5007 C   0  0  0  0  0  0  0  0  0  0  0  0
    5.6652  -13.0202   20.4156 N   0  0  0  0  0  0  0  0  0  0  0  0
    4.8536  -13.1013   19.3827 C   0  0  0  0  0  0  0  0  0  0  0  0
    3.8483  -14.3890   18.4388 C   0  0  0  0  0  0  0  0  0  0  0  0
    4.1824  -15.7615   18.0388 C   0  0  0  0  0  0  0  0  0  0  0  0
    3.4421  -16.7484   17.2583 C   0  0  0  0  0  0  0  0  0  0  0  0
    2.1186  -16.5517   17.0166 C   0  0  0  0  0  0  0  0  0  0  0  0
    1.5699  -15.4723   17.5272 N   0  0  0  0  0  0  0  0  0  0  0  0
    2.4525  -14.5238   18.1823 C   0  0  0  0  0  0  0  0  0  0  0  0
    5.7713  -11.5365   18.7871 S   0  0  0  0  0  0  0  0  0  0  0  0
    8.3494   -4.7508   12.4151 H   0  0  0  0  0  0  0  0  0  0  0  0
    6.8526   -5.5019   11.7751 H   0  0  0  0  0  0  0  0  0  0  0  0
    8.4101   -6.3311   11.5999 H   0  0  0  0  0  0  0  0  0  0  0  0
    6.4652   -4.7649   13.8913 H   0  0  0  0  0  0  0  0  0  0  0  0
    5.2138   -5.2917   15.7716 H   0  0  0  0  0  0  0  0  0  0  0  0
    5.8491   -6.9152   15.6876 H   0  0  0  0  0  0  0  0  0  0  0  0
    8.1542   -5.5673   16.3802 H   0  0  0  0  0  0  0  0  0  0  0  0
    7.2467   -3.8253   18.2259 H   0  0  0  0  0  0  0  0  0  0  0  0
    7.2105   -3.3888   16.4994 H   0  0  0  0  0  0  0  0  0  0  0  0
    5.7613   -3.9390   17.3484 H   0  0  0  0  0  0  0  0  0  0  0  0
    5.9916   -7.0141   18.1144 H   0  0  0  0  0  0  0  0  0  0  0  0
    6.8879   -5.8502   18.9018 H   0  0  0  0  0  0  0  0  0  0  0  0
    8.5902   -5.3849   18.5168 H   0  0  0  0  0  0  0  0  0  0  0  0
    9.7787   -5.9714   19.1741 H   0  0  0  0  0  0  0  0  0  0  0  0
    9.5821   -6.3569   17.4409 H   0  0  0  0  0  0  0  0  0  0  0  0
    6.0630  -11.2458   21.5058 H   0  0  0  0  0  0  0  0  0  0  0  0
    4.9709  -16.3285   18.5251 H   0  0  0  0  0  0  0  0  0  0  0  0
    3.9104  -17.6975   17.0162 H   0  0  0  0  0  0  0  0  0  0  0  0
    1.4825  -17.2569   16.5026 H   0  0  0  0  0  0  0  0  0  0  0  0
    1.7600  -13.7428   18.2885 H   0  0  0  0  0  0  0  0  0  0  0  0
  1  2  1  0
  2  3  2  0
  2  4  1  0
  4  5  1  0
  5  6  1  0
  6  7  1  0
  6  8  1  0
  8  9  1  0
  9 10  1  0
  9 11  1  0
 11 12  2  0
 11 13  1  0
 13 14  2  0
 14 15  1  0
 15 16  2  0
 16 17  1  0
 17 18  2  0
 18 19  1  0
 19 20  2  0
 20 21  1  0
 21 22  2  0
 16 23  1  0
 23 13  1  0
 22 17  1  0
  1 24  1  0
  1 25  1  0
  1 26  1  0
  4 27  1  0
  5 28  1  0
  5 29  1  0
  6 30  1  0
  7 31  1  0
  7 32  1  0
  7 33  1  0
  8 34  1  0
  8 35  1  0
 10 36  1  0
 10 37  1  0
 10 38  1  0
 14 39  1  0
 18 40  1  0
 19 41  1  0
 20 42  1  0
 22 43  1  0
M  END
>  <Energy>  (913) 
653.28651014768172

>  <compound_id>  (913) 
25453

>  <target_id>  (913) 
1

>  <reference_id>  (913) 
71

>  <inspiration_ids>  (913) 
[71, 49]

>  <energy_score>  (913) 
594.5373802350421

>  <distance_score>  (913) 
16.815503459627674

>  <path>  (913) 
/opt/xchem-fragalysis-2/maxwin/BulkDock/SCRATCH/511022/C25453-P71/C25453-P71.minimised.mol

>  <scratch_subdir>  (913) 
/opt/xchem-fragalysis-2/maxwin/BulkDock/SCRATCH/511022/C25453-P71

>  <fragmenstein_runtime>  (913) 
29.049022674560547

>  <fragmenstein_outcome>  (913) 
too moved

>  <fragmenstein_mode>  (913) 
expansion

>  <fragmenstein_error>  (913) 


$$$$
C25453-P49
     RDKit          3D

 43 44  0  0  0  0  0  0  0  0999 V2000
   -0.6909   -2.7239   25.8923 C   0  0  0  0  0  0  0  0  0  0  0  0
    0.1643   -3.9585   26.0921 C   0  0  0  0  0  0  0  0  0  0  0  0
    1.3517   -3.8907   25.9720 O   0  0  0  0  0  0  0  0  0  0  0  0
   -0.6805   -5.0635   26.4446 N   0  0  0  0  0  0  0  0  0  0  0  0
   -0.3733   -6.4552   26.6707 C   0  0  0  0  0  0  0  0  0  0  0  0
    0.6099   -6.6709   27.8320 C   0  0  0  0  0  0  0  0  0  0  0  0
    2.0411   -6.9752   27.3116 C   0  0  0  0  0  0  0  0  0  0  0  0
    0.0358   -7.8565   28.8326 C   0  0  0  0  0  0  0  0  0  0  0  0
   -1.2334   -7.8455   29.8521 N   0  0  0  0  0  0  0  0  0  0  0  0
   -0.8206   -6.4503   30.0057 C   0  0  0  0  0  0  0  0  0  0  0  0
   -2.4005   -8.4220   29.2139 C   0  0  0  0  0  0  0  0  0  0  0  0
   -3.2747   -7.9000   28.5717 O   0  0  0  0  0  0  0  0  0  0  0  0
   -2.5652   -9.8953   29.5120 C   0  0  0  0  0  0  0  0  0  0  0  0
   -1.8220  -10.7874   30.2637 C   0  0  0  0  0  0  0  0  0  0  0  0
   -2.3897  -12.0524   30.5139 N   0  0  0  0  0  0  0  0  0  0  0  0
   -3.6286  -12.1386   30.0521 C   0  0  0  0  0  0  0  0  0  0  0  0
   -4.5669  -13.2964   30.2817 C   0  0  0  0  0  0  0  0  0  0  0  0
   -5.9673  -13.2181   30.1876 C   0  0  0  0  0  0  0  0  0  0  0  0
   -6.7858  -14.3259   30.4736 C   0  0  0  0  0  0  0  0  0  0  0  0
   -6.1865  -15.5124   30.8489 C   0  0  0  0  0  0  0  0  0  0  0  0
   -4.8513  -15.6522   30.9500 N   0  0  0  0  0  0  0  0  0  0  0  0
   -4.0863  -14.5497   30.6738 C   0  0  0  0  0  0  0  0  0  0  0  0
   -4.0776  -10.7156   29.1436 S   0  0  0  0  0  0  0  0  0  0  0  0
   -1.4723   -2.9209   25.1527 H   0  0  0  0  0  0  0  0  0  0  0  0
   -0.0687   -1.9025   25.5246 H   0  0  0  0  0  0  0  0  0  0  0  0
   -1.1406   -2.4272   26.8440 H   0  0  0  0  0  0  0  0  0  0  0  0
   -1.6369   -4.7344   26.5316 H   0  0  0  0  0  0  0  0  0  0  0  0
   -1.3302   -6.9530   26.8482 H   0  0  0  0  0  0  0  0  0  0  0  0
    0.0372   -6.8441   25.7399 H   0  0  0  0  0  0  0  0  0  0  0  0
    0.7339   -5.7353   28.3895 H   0  0  0  0  0  0  0  0  0  0  0  0
    2.7389   -7.0098   28.1534 H   0  0  0  0  0  0  0  0  0  0  0  0
    2.3884   -6.2017   26.6232 H   0  0  0  0  0  0  0  0  0  0  0  0
    2.0589   -7.9427   26.8050 H   0  0  0  0  0  0  0  0  0  0  0  0
    0.8756   -8.1739   29.4700 H   0  0  0  0  0  0  0  0  0  0  0  0
   -0.1882   -8.6903   28.1579 H   0  0  0  0  0  0  0  0  0  0  0  0
   -1.1825   -5.7993   29.2027 H   0  0  0  0  0  0  0  0  0  0  0  0
   -1.4470   -6.1090   30.8447 H   0  0  0  0  0  0  0  0  0  0  0  0
    0.1934   -6.2833   30.3961 H   0  0  0  0  0  0  0  0  0  0  0  0
   -0.8554  -10.5678   30.7006 H   0  0  0  0  0  0  0  0  0  0  0  0
   -6.4503  -12.2841   29.9089 H   0  0  0  0  0  0  0  0  0  0  0  0
   -7.8654  -14.2487   30.4051 H   0  0  0  0  0  0  0  0  0  0  0  0
   -6.7697  -16.3948   31.0873 H   0  0  0  0  0  0  0  0  0  0  0  0
   -3.0162  -14.7142   30.7915 H   0  0  0  0  0  0  0  0  0  0  0  0
  1  2  1  0
  2  3  2  0
  2  4  1  0
  4  5  1  0
  5  6  1  0
  6  7  1  0
  6  8  1  0
  8  9  1  0
  9 10  1  0
  9 11  1  0
 11 12  2  0
 11 13  1  0
 13 14  2  0
 14 15  1  0
 15 16  2  0
 16 17  1  0
 17 18  2  0
 18 19  1  0
 19 20  2  0
 20 21  1  0
 21 22  2  0
 16 23  1  0
 23 13  1  0
 22 17  1  0
  1 24  1  0
  1 25  1  0
  1 26  1  0
  4 27  1  0
  5 28  1  0
  5 29  1  0
  6 30  1  0
  7 31  1  0
  7 32  1  0
  7 33  1  0
  8 34  1  0
  8 35  1  0
 10 36  1  0
 10 37  1  0
 10 38  1  0
 14 39  1  0
 18 40  1  0
 19 41  1  0
 20 42  1  0
 22 43  1  0
M  END
>  <Energy>  (914) 
108.80718916158825

>  <compound_id>  (914) 
25453

>  <target_id>  (914) 
1

>  <reference_id>  (914) 
49

>  <inspiration_ids>  (914) 
[71, 49]

>  <energy_score>  (914) 
50.05805924895378

>  <distance_score>  (914) 
16.151841915837977

>  <path>  (914) 
/opt/xchem-fragalysis-2/maxwin/BulkDock/SCRATCH/511022/C25453-P49/C25453-P49.minimised.mol

>  <scratch_subdir>  (914) 
/opt/xchem-fragalysis-2/maxwin/BulkDock/SCRATCH/511022/C25453-P49

>  <fragmenstein_runtime>  (914) 
16.670013666152954

>  <fragmenstein_outcome>  (914) 
too moved

>  <fragmenstein_mode>  (914) 
expansion

>  <fragmenstein_error>  (914) 


$$$$
C42572-P71
     RDKit          3D

 42 43  0  0  0  0  0  0  0  0999 V2000
    1.3234   -4.3833   24.6975 C   0  0  0  0  0  0  0  0  0  0  0  0
    0.5013   -5.0925   23.6073 C   0  0  0  0  0  0  0  0  0  0  0  0
    1.4679   -5.6074   22.4989 C   0  0  0  0  0  0  0  0  0  0  0  0
    2.1501   -4.5959   21.7087 N   0  0  0  0  0  0  0  0  0  0  0  0
    3.5328   -4.1416   21.7296 C   0  0  0  0  0  0  0  0  0  0  0  0
    4.4392   -4.4310   22.4584 O   0  0  0  0  0  0  0  0  0  0  0  0
    3.7673   -3.2184   20.5134 C   0  0  0  0  0  0  0  0  0  0  0  0
    4.9822   -2.3560   20.6180 C   0  0  0  0  0  0  0  0  0  0  0  0
    5.2941   -1.2603   21.3865 C   0  0  0  0  0  0  0  0  0  0  0  0
    6.4931   -0.7827   20.8452 C   0  0  0  0  0  0  0  0  0  0  0  0
    6.9434   -1.5574   19.8537 N   0  0  0  0  0  0  0  0  0  0  0  0
    5.9832   -2.5549   19.7091 O   0  0  0  0  0  0  0  0  0  0  0  0
   -0.5991   -6.5149   23.9633 C   0  0  0  0  0  0  0  0  0  0  0  0
   -1.8676   -7.2432   25.2999 N   0  0  0  0  0  0  0  0  0  0  0  0
   -1.0852   -6.4411   24.6236 C   0  0  0  0  0  0  0  0  0  0  0  0
   -3.0133   -8.3367   24.9180 C   0  0  0  0  0  0  0  0  0  0  0  0
   -3.3658   -8.7699   23.9044 O   0  0  0  0  0  0  0  0  0  0  0  0
   -3.6706   -8.9788   26.1290 C   0  0  0  0  0  0  0  0  0  0  0  0
   -3.6029   -8.8089   27.5008 C   0  0  0  0  0  0  0  0  0  0  0  0
   -4.2842   -9.7432   28.3062 N   0  0  0  0  0  0  0  0  0  0  0  0
   -4.8826  -10.6534   27.5806 C   0  0  0  0  0  0  0  0  0  0  0  0
   -5.5699  -11.7002   28.1010 N   0  0  0  0  0  0  0  0  0  0  0  0
   -4.6766  -10.4290   25.8885 S   0  0  0  0  0  0  0  0  0  0  0  0
    0.7732   -4.3224   25.6398 H   0  0  0  0  0  0  0  0  0  0  0  0
    1.5395   -3.3566   24.3795 H   0  0  0  0  0  0  0  0  0  0  0  0
    2.2920   -4.8529   24.8795 H   0  0  0  0  0  0  0  0  0  0  0  0
   -0.1851   -4.3516   23.1716 H   0  0  0  0  0  0  0  0  0  0  0  0
    0.9071   -6.2064   21.7735 H   0  0  0  0  0  0  0  0  0  0  0  0
    2.2326   -6.2580   22.9373 H   0  0  0  0  0  0  0  0  0  0  0  0
    1.6840   -4.2026   20.8985 H   0  0  0  0  0  0  0  0  0  0  0  0
    3.8354   -3.8572   19.6249 H   0  0  0  0  0  0  0  0  0  0  0  0
    2.8986   -2.5606   20.3880 H   0  0  0  0  0  0  0  0  0  0  0  0
    4.7024   -0.8338   22.1829 H   0  0  0  0  0  0  0  0  0  0  0  0
    7.0634    0.0877   21.1389 H   0  0  0  0  0  0  0  0  0  0  0  0
   -1.0955   -6.7278   22.8537 H   0  0  0  0  0  0  0  0  0  0  0  0
    0.1893   -7.4321   23.8239 H   0  0  0  0  0  0  0  0  0  0  0  0
   -1.2113   -5.3205   25.1946 H   0  0  0  0  0  0  0  0  0  0  0  0
   -0.4377   -6.4503   25.7024 H   0  0  0  0  0  0  0  0  0  0  0  0
   -2.1906   -5.8942   24.2818 H   0  0  0  0  0  0  0  0  0  0  0  0
   -3.0390   -8.0252   27.9936 H   0  0  0  0  0  0  0  0  0  0  0  0
   -5.3494  -11.8980   29.0722 H   0  0  0  0  0  0  0  0  0  0  0  0
   -5.6287  -12.5365   27.5319 H   0  0  0  0  0  0  0  0  0  0  0  0
  1  2  1  0
  2  3  1  0
  3  4  1  0
  4  5  1  0
  5  6  2  0
  5  7  1  0
  7  8  1  0
  8  9  2  0
  9 10  1  0
 10 11  2  0
 11 12  1  0
  2 13  1  0
 13 14  1  0
 14 15  1  0
 14 16  1  0
 16 17  2  0
 16 18  1  0
 18 19  2  0
 19 20  1  0
 20 21  2  0
 21 22  1  0
 21 23  1  0
 12  8  1  0
 23 18  1  0
  1 24  1  0
  1 25  1  0
  1 26  1  0
  2 27  1  0
  3 28  1  0
  3 29  1  0
  4 30  1  0
  7 31  1  0
  7 32  1  0
  9 33  1  0
 10 34  1  0
 13 35  1  0
 13 36  1  0
 15 37  1  0
 15 38  1  0
 15 39  1  0
 19 40  1  0
 22 41  1  0
 22 42  1  0
M  END
>  <Energy>  (915) 
741.95906669324472

>  <compound_id>  (915) 
42572

>  <target_id>  (915) 
1

>  <reference_id>  (915) 
71

>  <inspiration_ids>  (915) 
[71, 49]

>  <energy_score>  (915) 
698.1071905322578

>  <distance_score>  (915) 
14.789347093008633

>  <path>  (915) 
/opt/xchem-fragalysis-2/maxwin/BulkDock/SCRATCH/511022/C42572-P71/C42572-P71.minimised.mol

>  <scratch_subdir>  (915) 
/opt/xchem-fragalysis-2/maxwin/BulkDock/SCRATCH/511022/C42572-P71

>  <fragmenstein_runtime>  (915) 
29.049846172332764

>  <fragmenstein_outcome>  (915) 
too moved

>  <fragmenstein_mode>  (915) 
expansion

>  <fragmenstein_error>  (915) 


$$$$
C42572-P49
     RDKit          3D

 42 43  0  0  0  0  0  0  0  0999 V2000
    5.1322  -13.9649   18.6127 C   0  0  0  0  0  0  0  0  0  0  0  0
    5.4958  -15.1368   19.5486 C   0  0  0  0  0  0  0  0  0  0  0  0
    7.0143  -15.1568   19.8943 C   0  0  0  0  0  0  0  0  0  0  0  0
    7.6537  -13.8725   20.1253 N   0  0  0  0  0  0  0  0  0  0  0  0
    8.4736  -13.0406   19.2483 C   0  0  0  0  0  0  0  0  0  0  0  0
    8.8900  -13.2458   18.1441 O   0  0  0  0  0  0  0  0  0  0  0  0
    8.8056  -11.7064   19.9687 C   0  0  0  0  0  0  0  0  0  0  0  0
    9.7463  -10.8004   19.2228 C   0  0  0  0  0  0  0  0  0  0  0  0
   10.9612  -10.9605   18.5936 C   0  0  0  0  0  0  0  0  0  0  0  0
   11.3105   -9.6712   18.1615 C   0  0  0  0  0  0  0  0  0  0  0  0
   10.3948   -8.7628   18.5038 N   0  0  0  0  0  0  0  0  0  0  0  0
    9.4090   -9.4731   19.1741 O   0  0  0  0  0  0  0  0  0  0  0  0
    4.4058  -15.3034   21.0037 C   0  0  0  0  0  0  0  0  0  0  0  0
    2.9858  -16.5275   21.6636 N   0  0  0  0  0  0  0  0  0  0  0  0
    3.7642  -15.8208   20.8758 C   0  0  0  0  0  0  0  0  0  0  0  0
    1.3909  -16.7918   21.3195 C   0  0  0  0  0  0  0  0  0  0  0  0
    0.6933  -16.3750   20.4975 O   0  0  0  0  0  0  0  0  0  0  0  0
    0.7464  -17.6849   22.3731 C   0  0  0  0  0  0  0  0  0  0  0  0
    1.2278  -18.4302   23.4386 C   0  0  0  0  0  0  0  0  0  0  0  0
    0.2852  -18.9959   24.3195 N   0  0  0  0  0  0  0  0  0  0  0  0
   -0.9353  -18.6975   23.9512 C   0  0  0  0  0  0  0  0  0  0  0  0
   -2.0378  -19.0432   24.6620 N   0  0  0  0  0  0  0  0  0  0  0  0
   -1.0169  -17.7920   22.4878 S   0  0  0  0  0  0  0  0  0  0  0  0
    5.4334  -14.2230   17.5903 H   0  0  0  0  0  0  0  0  0  0  0  0
    5.6243  -13.0225   18.8336 H   0  0  0  0  0  0  0  0  0  0  0  0
    4.0499  -13.8063   18.5996 H   0  0  0  0  0  0  0  0  0  0  0  0
    5.3277  -16.0649   18.9791 H   0  0  0  0  0  0  0  0  0  0  0  0
    7.5461  -15.6078   19.0480 H   0  0  0  0  0  0  0  0  0  0  0  0
    7.2046  -15.7851   20.7689 H   0  0  0  0  0  0  0  0  0  0  0  0
    7.4189  -13.3429   20.9640 H   0  0  0  0  0  0  0  0  0  0  0  0
    9.2530  -11.9428   20.9414 H   0  0  0  0  0  0  0  0  0  0  0  0
    7.8600  -11.1801   20.1430 H   0  0  0  0  0  0  0  0  0  0  0  0
   11.5066  -11.8829   18.4589 H   0  0  0  0  0  0  0  0  0  0  0  0
   12.1900   -9.3533   17.6185 H   0  0  0  0  0  0  0  0  0  0  0  0
    5.2684  -15.5216   21.8235 H   0  0  0  0  0  0  0  0  0  0  0  0
    4.2226  -14.1842   21.4256 H   0  0  0  0  0  0  0  0  0  0  0  0
    2.7405  -15.0946   20.6071 H   0  0  0  0  0  0  0  0  0  0  0  0
    3.3393  -16.0575   19.7128 H   0  0  0  0  0  0  0  0  0  0  0  0
    4.1602  -16.9666   20.5197 H   0  0  0  0  0  0  0  0  0  0  0  0
    2.2800  -18.5661   23.6588 H   0  0  0  0  0  0  0  0  0  0  0  0
   -1.8585  -19.2841   25.6299 H   0  0  0  0  0  0  0  0  0  0  0  0
   -2.8605  -18.4676   24.5297 H   0  0  0  0  0  0  0  0  0  0  0  0
  1  2  1  0
  2  3  1  0
  3  4  1  0
  4  5  1  0
  5  6  2  0
  5  7  1  0
  7  8  1  0
  8  9  2  0
  9 10  1  0
 10 11  2  0
 11 12  1  0
  2 13  1  0
 13 14  1  0
 14 15  1  0
 14 16  1  0
 16 17  2  0
 16 18  1  0
 18 19  2  0
 19 20  1  0
 20 21  2  0
 21 22  1  0
 21 23  1  0
 12  8  1  0
 23 18  1  0
  1 24  1  0
  1 25  1  0
  1 26  1  0
  2 27  1  0
  3 28  1  0
  3 29  1  0
  4 30  1  0
  7 31  1  0
  7 32  1  0
  9 33  1  0
 10 34  1  0
 13 35  1  0
 13 36  1  0
 15 37  1  0
 15 38  1  0
 15 39  1  0
 19 40  1  0
 22 41  1  0
 22 42  1  0
M  END
>  <Energy>  (916) 
734.15503792923869

>  <compound_id>  (916) 
42572

>  <target_id>  (916) 
1

>  <reference_id>  (916) 
49

>  <inspiration_ids>  (916) 
[71, 49]

>  <energy_score>  (916) 
690.3031617682634

>  <distance_score>  (916) 
15.212947829273258

>  <path>  (916) 
/opt/xchem-fragalysis-2/maxwin/BulkDock/SCRATCH/511022/C42572-P49/C42572-P49.minimised.mol

>  <scratch_subdir>  (916) 
/opt/xchem-fragalysis-2/maxwin/BulkDock/SCRATCH/511022/C42572-P49

>  <fragmenstein_runtime>  (916) 
17.023940086364746

>  <fragmenstein_outcome>  (916) 
too moved

>  <fragmenstein_mode>  (916) 
expansion

>  <fragmenstein_error>  (916) 


$$$$
C42573-P71
     RDKit          3D

 43 44  0  0  0  0  0  0  0  0999 V2000
   -2.4801  -17.4923   26.6763 C   0  0  0  0  0  0  0  0  0  0  0  0
   -2.5094  -16.1099   27.5919 C   0  0  0  0  0  0  0  0  0  0  0  0
   -3.6438  -16.6213   28.3468 N   0  0  0  0  0  0  0  0  0  0  0  0
   -3.5676  -16.1176   29.5205 C   0  0  0  0  0  0  0  0  0  0  0  0
   -2.4790  -14.7168   29.3723 S   0  0  0  0  0  0  0  0  0  0  0  0
   -2.3748  -14.3913   27.1503 C   0  0  0  0  0  0  0  0  0  0  0  0
   -3.1323  -12.4665   27.0195 C   0  0  0  0  0  0  0  0  0  0  0  0
   -4.2532  -12.1803   27.3128 O   0  0  0  0  0  0  0  0  0  0  0  0
   -2.0648  -11.1407   26.2763 N   0  0  0  0  0  0  0  0  0  0  0  0
   -2.4381   -9.2641   25.6967 C   0  0  0  0  0  0  0  0  0  0  0  0
   -0.8963   -9.9132   27.4814 C   0  0  0  0  0  0  0  0  0  0  0  0
   -0.4675   -7.9660   27.2539 C   0  0  0  0  0  0  0  0  0  0  0  0
    0.1844   -7.1072   28.3487 C   0  0  0  0  0  0  0  0  0  0  0  0
   -0.6607   -6.9657   25.9496 C   0  0  0  0  0  0  0  0  0  0  0  0
   -0.0188   -5.6688   25.9873 N   0  0  0  0  0  0  0  0  0  0  0  0
   -0.5667   -4.3446   25.9394 C   0  0  0  0  0  0  0  0  0  0  0  0
   -1.7045   -3.9682   25.9362 O   0  0  0  0  0  0  0  0  0  0  0  0
    0.5700   -3.3074   25.9218 C   0  0  0  0  0  0  0  0  0  0  0  0
    1.4828   -3.4741   24.7563 C   0  0  0  0  0  0  0  0  0  0  0  0
    1.3208   -3.8248   23.4369 C   0  0  0  0  0  0  0  0  0  0  0  0
    2.6253   -3.8035   22.9097 C   0  0  0  0  0  0  0  0  0  0  0  0
    3.5368   -3.4461   23.8193 N   0  0  0  0  0  0  0  0  0  0  0  0
    2.8094   -3.2397   24.9893 O   0  0  0  0  0  0  0  0  0  0  0  0
   -1.5200  -18.0089   26.7849 H   0  0  0  0  0  0  0  0  0  0  0  0
   -2.7722  -17.2621   25.6514 H   0  0  0  0  0  0  0  0  0  0  0  0
   -3.2245  -18.2232   27.0237 H   0  0  0  0  0  0  0  0  0  0  0  0
   -4.0443  -16.5710   30.3786 H   0  0  0  0  0  0  0  0  0  0  0  0
   -2.5754   -9.4010   24.5764 H   0  0  0  0  0  0  0  0  0  0  0  0
   -1.5826   -8.6498   25.6134 H   0  0  0  0  0  0  0  0  0  0  0  0
   -3.0657   -8.5394   26.1304 H   0  0  0  0  0  0  0  0  0  0  0  0
   -1.1311   -9.9842   28.5689 H   0  0  0  0  0  0  0  0  0  0  0  0
    0.1092  -10.3413   27.5576 H   0  0  0  0  0  0  0  0  0  0  0  0
   -1.3667   -7.5252   27.7176 H   0  0  0  0  0  0  0  0  0  0  0  0
   -0.0513   -7.5337   29.3298 H   0  0  0  0  0  0  0  0  0  0  0  0
   -0.3062   -6.1196   28.4332 H   0  0  0  0  0  0  0  0  0  0  0  0
    1.2010   -6.8180   28.1567 H   0  0  0  0  0  0  0  0  0  0  0  0
   -0.3091   -7.4194   25.0194 H   0  0  0  0  0  0  0  0  0  0  0  0
   -1.7188   -6.7078   25.8479 H   0  0  0  0  0  0  0  0  0  0  0  0
    0.9920   -5.6135   25.8886 H   0  0  0  0  0  0  0  0  0  0  0  0
    0.1256   -2.3060   25.8883 H   0  0  0  0  0  0  0  0  0  0  0  0
    1.1199   -3.3915   26.8664 H   0  0  0  0  0  0  0  0  0  0  0  0
    0.3989   -4.0810   22.9351 H   0  0  0  0  0  0  0  0  0  0  0  0
    2.9508   -4.0329   21.9049 H   0  0  0  0  0  0  0  0  0  0  0  0
  1  2  1  0
  2  3  1  0
  3  4  2  0
  4  5  1  0
  5  6  1  0
  6  7  1  0
  7  8  2  0
  7  9  1  0
  9 10  1  0
  9 11  1  0
 11 12  1  0
 12 13  1  0
 12 14  1  0
 14 15  1  0
 15 16  1  0
 16 17  2  0
 16 18  1  0
 18 19  1  0
 19 20  2  0
 20 21  1  0
 21 22  2  0
 22 23  1  0
  6  2  2  0
 23 19  1  0
  1 24  1  0
  1 25  1  0
  1 26  1  0
  4 27  1  0
 10 28  1  0
 10 29  1  0
 10 30  1  0
 11 31  1  0
 11 32  1  0
 12 33  1  0
 13 34  1  0
 13 35  1  0
 13 36  1  0
 14 37  1  0
 14 38  1  0
 15 39  1  0
 18 40  1  0
 18 41  1  0
 20 42  1  0
 21 43  1  0
M  END
>  <Energy>  (917) 
761.5565867338214

>  <compound_id>  (917) 
42573

>  <target_id>  (917) 
1

>  <reference_id>  (917) 
71

>  <inspiration_ids>  (917) 
[71, 49]

>  <energy_score>  (917) 
684.0328796448734

>  <distance_score>  (917) 
15.83933942685781

>  <path>  (917) 
/opt/xchem-fragalysis-2/maxwin/BulkDock/SCRATCH/511022/C42573-P71/C42573-P71.minimised.mol

>  <scratch_subdir>  (917) 
/opt/xchem-fragalysis-2/maxwin/BulkDock/SCRATCH/511022/C42573-P71

>  <fragmenstein_runtime>  (917) 
20.31137251853943

>  <fragmenstein_outcome>  (917) 
too moved

>  <fragmenstein_mode>  (917) 
expansion

>  <fragmenstein_error>  (917) 


$$$$
C42573-P49
     RDKit          3D

 43 44  0  0  0  0  0  0  0  0999 V2000
    2.6647  -18.3963   24.1562 C   0  0  0  0  0  0  0  0  0  0  0  0
    2.6335  -17.8456   22.7793 C   0  0  0  0  0  0  0  0  0  0  0  0
    1.5407  -18.2395   22.0193 N   0  0  0  0  0  0  0  0  0  0  0  0
    1.6583  -17.7477   20.8151 C   0  0  0  0  0  0  0  0  0  0  0  0
    3.0547  -16.7850   20.5282 S   0  0  0  0  0  0  0  0  0  0  0  0
    3.5937  -17.0236   22.1387 C   0  0  0  0  0  0  0  0  0  0  0  0
    4.9429  -16.6064   22.6674 C   0  0  0  0  0  0  0  0  0  0  0  0
    5.1289  -16.9421   23.8079 O   0  0  0  0  0  0  0  0  0  0  0  0
    5.8440  -15.9643   21.7138 N   0  0  0  0  0  0  0  0  0  0  0  0
    7.2703  -15.6375   21.8203 C   0  0  0  0  0  0  0  0  0  0  0  0
    5.7117  -14.3550   21.8096 C   0  0  0  0  0  0  0  0  0  0  0  0
    6.5796  -13.2595   20.9292 C   0  0  0  0  0  0  0  0  0  0  0  0
    6.4709  -11.8257   21.5045 C   0  0  0  0  0  0  0  0  0  0  0  0
    6.1432  -13.3125   19.4592 C   0  0  0  0  0  0  0  0  0  0  0  0
    6.9790  -12.4832   18.6170 N   0  0  0  0  0  0  0  0  0  0  0  0
    6.7780  -11.1519   18.1049 C   0  0  0  0  0  0  0  0  0  0  0  0
    5.8320  -10.4196   18.1803 O   0  0  0  0  0  0  0  0  0  0  0  0
    8.0191  -10.6702   17.3372 C   0  0  0  0  0  0  0  0  0  0  0  0
    8.7389   -9.6265   18.1092 C   0  0  0  0  0  0  0  0  0  0  0  0
    8.3592   -8.5433   18.8671 C   0  0  0  0  0  0  0  0  0  0  0  0
    9.5728   -7.9617   19.2714 C   0  0  0  0  0  0  0  0  0  0  0  0
   10.6309   -8.6211   18.7945 N   0  0  0  0  0  0  0  0  0  0  0  0
   10.1018   -9.6752   18.0620 O   0  0  0  0  0  0  0  0  0  0  0  0
    3.5421  -19.0356   24.2949 H   0  0  0  0  0  0  0  0  0  0  0  0
    1.7817  -19.0024   24.3644 H   0  0  0  0  0  0  0  0  0  0  0  0
    2.7238  -17.5598   24.8541 H   0  0  0  0  0  0  0  0  0  0  0  0
    0.9207  -17.9228   20.0435 H   0  0  0  0  0  0  0  0  0  0  0  0
    7.7210  -16.6125   22.0645 H   0  0  0  0  0  0  0  0  0  0  0  0
    7.7159  -15.4234   20.8435 H   0  0  0  0  0  0  0  0  0  0  0  0
    7.6057  -15.0365   22.6788 H   0  0  0  0  0  0  0  0  0  0  0  0
    4.6570  -14.1747   21.5566 H   0  0  0  0  0  0  0  0  0  0  0  0
    5.7689  -14.0877   22.8793 H   0  0  0  0  0  0  0  0  0  0  0  0
    7.6530  -13.4690   20.9830 H   0  0  0  0  0  0  0  0  0  0  0  0
    6.7504  -11.8226   22.5631 H   0  0  0  0  0  0  0  0  0  0  0  0
    5.4449  -11.4529   21.4229 H   0  0  0  0  0  0  0  0  0  0  0  0
    7.1369  -11.1313   20.9842 H   0  0  0  0  0  0  0  0  0  0  0  0
    6.2132  -14.3334   19.0713 H   0  0  0  0  0  0  0  0  0  0  0  0
    5.1084  -12.9694   19.3536 H   0  0  0  0  0  0  0  0  0  0  0  0
    7.8737  -12.8309   18.2918 H   0  0  0  0  0  0  0  0  0  0  0  0
    7.6773  -10.2566   16.3811 H   0  0  0  0  0  0  0  0  0  0  0  0
    8.6890  -11.5007   17.0920 H   0  0  0  0  0  0  0  0  0  0  0  0
    7.3516   -8.2217   19.0880 H   0  0  0  0  0  0  0  0  0  0  0  0
    9.7357   -7.0873   19.8851 H   0  0  0  0  0  0  0  0  0  0  0  0
  1  2  1  0
  2  3  1  0
  3  4  2  0
  4  5  1  0
  5  6  1  0
  6  7  1  0
  7  8  2  0
  7  9  1  0
  9 10  1  0
  9 11  1  0
 11 12  1  0
 12 13  1  0
 12 14  1  0
 14 15  1  0
 15 16  1  0
 16 17  2  0
 16 18  1  0
 18 19  1  0
 19 20  2  0
 20 21  1  0
 21 22  2  0
 22 23  1  0
  6  2  2  0
 23 19  1  0
  1 24  1  0
  1 25  1  0
  1 26  1  0
  4 27  1  0
 10 28  1  0
 10 29  1  0
 10 30  1  0
 11 31  1  0
 11 32  1  0
 12 33  1  0
 13 34  1  0
 13 35  1  0
 13 36  1  0
 14 37  1  0
 14 38  1  0
 15 39  1  0
 18 40  1  0
 18 41  1  0
 20 42  1  0
 21 43  1  0
M  END
>  <Energy>  (918) 
90.89682178857187

>  <compound_id>  (918) 
42573

>  <target_id>  (918) 
1

>  <reference_id>  (918) 
49

>  <inspiration_ids>  (918) 
[71, 49]

>  <energy_score>  (918) 
13.373114699622647

>  <distance_score>  (918) 
16.68416493435174

>  <path>  (918) 
/opt/xchem-fragalysis-2/maxwin/BulkDock/SCRATCH/511022/C42573-P49/C42573-P49.minimised.mol

>  <scratch_subdir>  (918) 
/opt/xchem-fragalysis-2/maxwin/BulkDock/SCRATCH/511022/C42573-P49

>  <fragmenstein_runtime>  (918) 
21.023651361465454

>  <fragmenstein_outcome>  (918) 
too moved

>  <fragmenstein_mode>  (918) 
expansion

>  <fragmenstein_error>  (918) 


$$$$
C53912-P71
     RDKit          3D

 43 44  0  0  0  0  0  0  0  0999 V2000
    1.4028  -20.5317   25.3757 C   0  0  0  0  0  0  0  0  0  0  0  0
    1.9576  -19.6313   26.4284 C   0  0  0  0  0  0  0  0  0  0  0  0
    1.1203  -19.4399   27.5341 N   0  0  0  0  0  0  0  0  0  0  0  0
    1.7652  -18.7527   28.4420 C   0  0  0  0  0  0  0  0  0  0  0  0
    3.3395  -18.2262   28.0156 S   0  0  0  0  0  0  0  0  0  0  0  0
    3.2039  -18.9597   26.4656 C   0  0  0  0  0  0  0  0  0  0  0  0
    4.4081  -19.1267   25.5925 C   0  0  0  0  0  0  0  0  0  0  0  0
    5.0252  -20.1318   25.8333 O   0  0  0  0  0  0  0  0  0  0  0  0
    4.5974  -18.1293   24.5379 N   0  0  0  0  0  0  0  0  0  0  0  0
    5.5234  -18.1104   23.3940 C   0  0  0  0  0  0  0  0  0  0  0  0
    5.5926  -16.9334   25.0525 C   0  0  0  0  0  0  0  0  0  0  0  0
    6.0861  -15.6217   24.1455 C   0  0  0  0  0  0  0  0  0  0  0  0
    7.0533  -14.6718   24.9029 C   0  0  0  0  0  0  0  0  0  0  0  0
    4.8761  -14.8372   23.6248 C   0  0  0  0  0  0  0  0  0  0  0  0
    5.2231  -13.8389   22.6474 N   0  0  0  0  0  0  0  0  0  0  0  0
    5.8701  -13.9557   21.3703 C   0  0  0  0  0  0  0  0  0  0  0  0
    6.3585  -14.9039   20.8246 O   0  0  0  0  0  0  0  0  0  0  0  0
    5.8779  -12.5962   20.6712 C   0  0  0  0  0  0  0  0  0  0  0  0
    6.7898  -11.6494   21.3591 C   0  0  0  0  0  0  0  0  0  0  0  0
    8.1315  -11.4281   21.1451 C   0  0  0  0  0  0  0  0  0  0  0  0
    8.5440  -10.4608   22.0090 O   0  0  0  0  0  0  0  0  0  0  0  0
    7.4203  -10.1435   22.7057 C   0  0  0  0  0  0  0  0  0  0  0  0
    6.3447  -10.8249   22.3759 N   0  0  0  0  0  0  0  0  0  0  0  0
    1.7781  -20.2479   24.3876 H   0  0  0  0  0  0  0  0  0  0  0  0
    0.3101  -20.4762   25.3505 H   0  0  0  0  0  0  0  0  0  0  0  0
    1.6953  -21.5667   25.5762 H   0  0  0  0  0  0  0  0  0  0  0  0
    1.3484  -18.5347   29.4148 H   0  0  0  0  0  0  0  0  0  0  0  0
    6.5902  -18.2723   23.6070 H   0  0  0  0  0  0  0  0  0  0  0  0
    5.2730  -17.3531   22.6473 H   0  0  0  0  0  0  0  0  0  0  0  0
    5.2703  -19.0438   22.8671 H   0  0  0  0  0  0  0  0  0  0  0  0
    5.0514  -16.5115   25.9104 H   0  0  0  0  0  0  0  0  0  0  0  0
    6.4770  -17.4115   25.5066 H   0  0  0  0  0  0  0  0  0  0  0  0
    6.6793  -15.9877   23.2997 H   0  0  0  0  0  0  0  0  0  0  0  0
    7.9171  -15.2344   25.2712 H   0  0  0  0  0  0  0  0  0  0  0  0
    7.4216  -13.8726   24.2523 H   0  0  0  0  0  0  0  0  0  0  0  0
    6.5517  -14.2178   25.7635 H   0  0  0  0  0  0  0  0  0  0  0  0
    4.1579  -15.4998   23.1353 H   0  0  0  0  0  0  0  0  0  0  0  0
    4.3752  -14.3205   24.4455 H   0  0  0  0  0  0  0  0  0  0  0  0
    4.8560  -12.8964   22.7476 H   0  0  0  0  0  0  0  0  0  0  0  0
    4.8560  -12.2007   20.6391 H   0  0  0  0  0  0  0  0  0  0  0  0
    6.1924  -12.7405   19.6308 H   0  0  0  0  0  0  0  0  0  0  0  0
    8.8783  -11.8331   20.4772 H   0  0  0  0  0  0  0  0  0  0  0  0
    7.5215   -9.3717   23.4553 H   0  0  0  0  0  0  0  0  0  0  0  0
  1  2  1  0
  2  3  1  0
  3  4  2  0
  4  5  1  0
  5  6  1  0
  6  7  1  0
  7  8  2  0
  7  9  1  0
  9 10  1  0
  9 11  1  0
 11 12  1  0
 12 13  1  0
 12 14  1  0
 14 15  1  0
 15 16  1  0
 16 17  2  0
 16 18  1  0
 18 19  1  0
 19 20  2  0
 20 21  1  0
 21 22  1  0
 22 23  2  0
  6  2  2  0
 23 19  1  0
  1 24  1  0
  1 25  1  0
  1 26  1  0
  4 27  1  0
 10 28  1  0
 10 29  1  0
 10 30  1  0
 11 31  1  0
 11 32  1  0
 12 33  1  0
 13 34  1  0
 13 35  1  0
 13 36  1  0
 14 37  1  0
 14 38  1  0
 15 39  1  0
 18 40  1  0
 18 41  1  0
 20 42  1  0
 22 43  1  0
M  END
>  <Energy>  (919) 
106.42517449098447

>  <compound_id>  (919) 
53912

>  <target_id>  (919) 
1

>  <reference_id>  (919) 
71

>  <inspiration_ids>  (919) 
[71, 49]

>  <energy_score>  (919) 
6.85832942954562

>  <distance_score>  (919) 
17.079744305464803

>  <path>  (919) 
/opt/xchem-fragalysis-2/maxwin/BulkDock/SCRATCH/511022/C53912-P71/C53912-P71.minimised.mol

>  <scratch_subdir>  (919) 
/opt/xchem-fragalysis-2/maxwin/BulkDock/SCRATCH/511022/C53912-P71

>  <fragmenstein_runtime>  (919) 
14.740793466567993

>  <fragmenstein_outcome>  (919) 
too moved

>  <fragmenstein_mode>  (919) 
expansion

>  <fragmenstein_error>  (919) 


$$$$
C53912-P49
     RDKit          3D

 43 44  0  0  0  0  0  0  0  0999 V2000
    0.6324  -21.3634   27.4855 C   0  0  0  0  0  0  0  0  0  0  0  0
    0.5423  -21.1733   26.0074 C   0  0  0  0  0  0  0  0  0  0  0  0
   -0.7195  -21.4656   25.4900 N   0  0  0  0  0  0  0  0  0  0  0  0
   -0.6810  -21.3616   24.1854 C   0  0  0  0  0  0  0  0  0  0  0  0
    0.8418  -20.9530   23.5001 S   0  0  0  0  0  0  0  0  0  0  0  0
    1.5332  -20.7768   25.0700 C   0  0  0  0  0  0  0  0  0  0  0  0
    3.0045  -20.4846   25.2719 C   0  0  0  0  0  0  0  0  0  0  0  0
    3.4309  -20.9082   26.3158 O   0  0  0  0  0  0  0  0  0  0  0  0
    3.7051  -19.8342   24.1519 N   0  0  0  0  0  0  0  0  0  0  0  0
    5.1429  -19.6069   23.9242 C   0  0  0  0  0  0  0  0  0  0  0  0
    3.7265  -18.2621   24.3530 C   0  0  0  0  0  0  0  0  0  0  0  0
    4.2060  -17.0927   23.3024 C   0  0  0  0  0  0  0  0  0  0  0  0
    5.6685  -16.5653   23.3841 C   0  0  0  0  0  0  0  0  0  0  0  0
    3.7301  -17.4036   21.8761 C   0  0  0  0  0  0  0  0  0  0  0  0
    3.7663  -16.2402   21.0250 N   0  0  0  0  0  0  0  0  0  0  0  0
    4.7850  -15.7541   20.1364 C   0  0  0  0  0  0  0  0  0  0  0  0
    5.8355  -16.2327   19.8143 O   0  0  0  0  0  0  0  0  0  0  0  0
    4.4217  -14.3613   19.6120 C   0  0  0  0  0  0  0  0  0  0  0  0
    3.0564  -14.2993   19.0346 C   0  0  0  0  0  0  0  0  0  0  0  0
    2.6539  -14.3344   17.7195 C   0  0  0  0  0  0  0  0  0  0  0  0
    1.2952  -14.2417   17.6908 O   0  0  0  0  0  0  0  0  0  0  0  0
    0.9448  -14.1592   19.0028 C   0  0  0  0  0  0  0  0  0  0  0  0
    1.9480  -14.1936   19.8517 N   0  0  0  0  0  0  0  0  0  0  0  0
   -0.2667  -20.9771   27.9767 H   0  0  0  0  0  0  0  0  0  0  0  0
    1.4941  -20.8477   27.9149 H   0  0  0  0  0  0  0  0  0  0  0  0
    0.7214  -22.4292   27.7175 H   0  0  0  0  0  0  0  0  0  0  0  0
   -1.5492  -21.5272   23.5624 H   0  0  0  0  0  0  0  0  0  0  0  0
    5.5510  -20.6293   23.9168 H   0  0  0  0  0  0  0  0  0  0  0  0
    5.3799  -19.2512   22.9212 H   0  0  0  0  0  0  0  0  0  0  0  0
    5.7110  -19.1524   24.7494 H   0  0  0  0  0  0  0  0  0  0  0  0
    4.1052  -18.0268   25.3626 H   0  0  0  0  0  0  0  0  0  0  0  0
    2.6479  -18.0575   24.4415 H   0  0  0  0  0  0  0  0  0  0  0  0
    3.6205  -16.2326   23.6497 H   0  0  0  0  0  0  0  0  0  0  0  0
    5.7553  -15.5861   22.9029 H   0  0  0  0  0  0  0  0  0  0  0  0
    6.3711  -17.2456   22.8956 H   0  0  0  0  0  0  0  0  0  0  0  0
    5.9669  -16.4506   24.4309 H   0  0  0  0  0  0  0  0  0  0  0  0
    4.3502  -18.1711   21.4059 H   0  0  0  0  0  0  0  0  0  0  0  0
    2.6929  -17.7539   21.8863 H   0  0  0  0  0  0  0  0  0  0  0  0
    3.0435  -15.5265   21.1240 H   0  0  0  0  0  0  0  0  0  0  0  0
    4.5168  -13.6507   20.4413 H   0  0  0  0  0  0  0  0  0  0  0  0
    5.1586  -14.0745   18.8523 H   0  0  0  0  0  0  0  0  0  0  0  0
    3.1544  -14.4137   16.7653 H   0  0  0  0  0  0  0  0  0  0  0  0
   -0.1109  -14.0765   19.2184 H   0  0  0  0  0  0  0  0  0  0  0  0
  1  2  1  0
  2  3  1  0
  3  4  2  0
  4  5  1  0
  5  6  1  0
  6  7  1  0
  7  8  2  0
  7  9  1  0
  9 10  1  0
  9 11  1  0
 11 12  1  0
 12 13  1  0
 12 14  1  0
 14 15  1  0
 15 16  1  0
 16 17  2  0
 16 18  1  0
 18 19  1  0
 19 20  2  0
 20 21  1  0
 21 22  1  0
 22 23  2  0
  6  2  2  0
 23 19  1  0
  1 24  1  0
  1 25  1  0
  1 26  1  0
  4 27  1  0
 10 28  1  0
 10 29  1  0
 10 30  1  0
 11 31  1  0
 11 32  1  0
 12 33  1  0
 13 34  1  0
 13 35  1  0
 13 36  1  0
 14 37  1  0
 14 38  1  0
 15 39  1  0
 18 40  1  0
 18 41  1  0
 20 42  1  0
 22 43  1  0
M  END
>  <Energy>  (920) 
101.07148187090071

>  <compound_id>  (920) 
53912

>  <target_id>  (920) 
1

>  <reference_id>  (920) 
49

>  <inspiration_ids>  (920) 
[71, 49]

>  <energy_score>  (920) 
1.5046368094656941

>  <distance_score>  (920) 
17.629001463510242

>  <path>  (920) 
/opt/xchem-fragalysis-2/maxwin/BulkDock/SCRATCH/511022/C53912-P49/C53912-P49.minimised.mol

>  <scratch_subdir>  (920) 
/opt/xchem-fragalysis-2/maxwin/BulkDock/SCRATCH/511022/C53912-P49

>  <fragmenstein_runtime>  (920) 
18.904900789260864

>  <fragmenstein_outcome>  (920) 
too moved

>  <fragmenstein_mode>  (920) 
expansion

>  <fragmenstein_error>  (920) 


$$$$
C42524-P71
     RDKit          3D

 40 41  0  0  0  0  0  0  0  0999 V2000
    1.8436   -8.2481   20.5692 C   0  0  0  0  0  0  0  0  0  0  0  0
    2.0175   -9.6801   20.0294 C   0  0  0  0  0  0  0  0  0  0  0  0
    3.2416  -10.4322   20.5881 C   0  0  0  0  0  0  0  0  0  0  0  0
    4.5068   -9.7169   20.4521 N   0  0  0  0  0  0  0  0  0  0  0  0
    5.0751   -9.0023   19.3333 C   0  0  0  0  0  0  0  0  0  0  0  0
    4.6176   -8.7463   18.2546 O   0  0  0  0  0  0  0  0  0  0  0  0
    6.5100   -8.5318   19.6329 C   0  0  0  0  0  0  0  0  0  0  0  0
    6.6131   -7.0693   19.9405 C   0  0  0  0  0  0  0  0  0  0  0  0
    5.6368   -6.0495   19.8383 C   0  0  0  0  0  0  0  0  0  0  0  0
    6.2455   -4.9276   20.3322 C   0  0  0  0  0  0  0  0  0  0  0  0
    7.5315   -5.2194   20.6465 O   0  0  0  0  0  0  0  0  0  0  0  0
    7.7715   -6.5587   20.3912 N   0  0  0  0  0  0  0  0  0  0  0  0
    0.5310  -10.7282   19.8283 C   0  0  0  0  0  0  0  0  0  0  0  0
   -0.7296  -11.5576   21.1116 N   0  0  0  0  0  0  0  0  0  0  0  0
   -0.0801  -10.6852   20.3777 C   0  0  0  0  0  0  0  0  0  0  0  0
   -1.4008  -13.0346   20.8565 C   0  0  0  0  0  0  0  0  0  0  0  0
   -1.3805  -13.7511   19.9496 O   0  0  0  0  0  0  0  0  0  0  0  0
   -2.2846  -13.4694   22.0043 C   0  0  0  0  0  0  0  0  0  0  0  0
   -3.4811  -12.9263   22.4723 C   0  0  0  0  0  0  0  0  0  0  0  0
   -4.1673  -13.6203   23.4760 N   0  0  0  0  0  0  0  0  0  0  0  0
   -3.5377  -14.7447   23.7152 C   0  0  0  0  0  0  0  0  0  0  0  0
   -4.1313  -15.8983   24.8729 Cl  0  0  0  0  0  0  0  0  0  0  0  0
   -2.1097  -15.0185   22.8110 S   0  0  0  0  0  0  0  0  0  0  0  0
    1.5300   -8.2333   21.6124 H   0  0  0  0  0  0  0  0  0  0  0  0
    2.7646   -7.6657   20.4838 H   0  0  0  0  0  0  0  0  0  0  0  0
    1.0734   -7.7280   19.9897 H   0  0  0  0  0  0  0  0  0  0  0  0
    2.2495   -9.5259   18.9634 H   0  0  0  0  0  0  0  0  0  0  0  0
    3.3712  -11.3705   20.0384 H   0  0  0  0  0  0  0  0  0  0  0  0
    3.1296  -10.6864   21.6403 H   0  0  0  0  0  0  0  0  0  0  0  0
    5.1544   -9.6704   21.2413 H   0  0  0  0  0  0  0  0  0  0  0  0
    7.1092   -8.7521   18.7399 H   0  0  0  0  0  0  0  0  0  0  0  0
    6.9515   -9.1246   20.4406 H   0  0  0  0  0  0  0  0  0  0  0  0
    4.6174   -6.1320   19.4867 H   0  0  0  0  0  0  0  0  0  0  0  0
    5.9363   -3.9061   20.4967 H   0  0  0  0  0  0  0  0  0  0  0  0
    1.1522  -11.7365   19.5508 H   0  0  0  0  0  0  0  0  0  0  0  0
    0.1843  -10.6064   18.6314 H   0  0  0  0  0  0  0  0  0  0  0  0
   -0.5524   -9.5072   20.5604 H   0  0  0  0  0  0  0  0  0  0  0  0
   -1.2247  -10.6051   19.8336 H   0  0  0  0  0  0  0  0  0  0  0  0
    0.2378  -10.3068   21.5114 H   0  0  0  0  0  0  0  0  0  0  0  0
   -3.9088  -12.0021   22.1003 H   0  0  0  0  0  0  0  0  0  0  0  0
  1  2  1  0
  2  3  1  0
  3  4  1  0
  4  5  1  0
  5  6  2  0
  5  7  1  0
  7  8  1  0
  8  9  1  0
  9 10  2  0
 10 11  1  0
 11 12  1  0
  2 13  1  0
 13 14  1  0
 14 15  1  0
 14 16  1  0
 16 17  2  0
 16 18  1  0
 18 19  2  0
 19 20  1  0
 20 21  2  0
 21 22  1  0
 21 23  1  0
 12  8  2  0
 23 18  1  0
  1 24  1  0
  1 25  1  0
  1 26  1  0
  2 27  1  0
  3 28  1  0
  3 29  1  0
  4 30  1  0
  7 31  1  0
  7 32  1  0
  9 33  1  0
 10 34  1  0
 13 35  1  0
 13 36  1  0
 15 37  1  0
 15 38  1  0
 15 39  1  0
 19 40  1  0
M  END
>  <Energy>  (921) 
774.08734853294288

>  <compound_id>  (921) 
42524

>  <target_id>  (921) 
1

>  <reference_id>  (921) 
71

>  <inspiration_ids>  (921) 
[71, 49]

>  <energy_score>  (921) 
689.0488383814316

>  <distance_score>  (921) 
14.782486908373984

>  <path>  (921) 
/opt/xchem-fragalysis-2/maxwin/BulkDock/SCRATCH/511022/C42524-P71/C42524-P71.minimised.mol

>  <scratch_subdir>  (921) 
/opt/xchem-fragalysis-2/maxwin/BulkDock/SCRATCH/511022/C42524-P71

>  <fragmenstein_runtime>  (921) 
31.830568313598633

>  <fragmenstein_outcome>  (921) 
too moved

>  <fragmenstein_mode>  (921) 
expansion

>  <fragmenstein_error>  (921) 


$$$$
C42524-P49
     RDKit          3D

 40 41  0  0  0  0  0  0  0  0999 V2000
    5.5278  -13.9928   18.4784 C   0  0  0  0  0  0  0  0  0  0  0  0
    5.6549  -15.1394   19.5154 C   0  0  0  0  0  0  0  0  0  0  0  0
    7.0673  -15.1691   20.1558 C   0  0  0  0  0  0  0  0  0  0  0  0
    7.7165  -13.8791   20.3100 N   0  0  0  0  0  0  0  0  0  0  0  0
    8.6455  -13.1644   19.4383 C   0  0  0  0  0  0  0  0  0  0  0  0
    9.1668  -13.4985   18.4126 O   0  0  0  0  0  0  0  0  0  0  0  0
    8.9442  -11.7697   20.0510 C   0  0  0  0  0  0  0  0  0  0  0  0
    9.8129  -10.8315   19.2411 C   0  0  0  0  0  0  0  0  0  0  0  0
   11.0359  -11.0859   18.5695 C   0  0  0  0  0  0  0  0  0  0  0  0
   11.4193   -9.8717   18.0676 C   0  0  0  0  0  0  0  0  0  0  0  0
   10.5111   -8.9306   18.4186 O   0  0  0  0  0  0  0  0  0  0  0  0
    9.5057   -9.5221   19.1685 N   0  0  0  0  0  0  0  0  0  0  0  0
    4.2252  -15.2048   20.6577 C   0  0  0  0  0  0  0  0  0  0  0  0
    3.1748  -16.5904   21.6312 N   0  0  0  0  0  0  0  0  0  0  0  0
    4.1100  -15.9614   20.9916 C   0  0  0  0  0  0  0  0  0  0  0  0
    1.5927  -16.8034   21.4205 C   0  0  0  0  0  0  0  0  0  0  0  0
    0.8403  -16.3443   20.6681 O   0  0  0  0  0  0  0  0  0  0  0  0
    0.9926  -17.7094   22.4911 C   0  0  0  0  0  0  0  0  0  0  0  0
    1.5084  -18.4060   23.5790 C   0  0  0  0  0  0  0  0  0  0  0  0
    0.5940  -18.9858   24.4818 N   0  0  0  0  0  0  0  0  0  0  0  0
   -0.6276  -18.7213   24.0914 C   0  0  0  0  0  0  0  0  0  0  0  0
   -2.0283  -19.1791   25.0166 Cl  0  0  0  0  0  0  0  0  0  0  0  0
   -0.7757  -17.8871   22.6147 S   0  0  0  0  0  0  0  0  0  0  0  0
    6.2323  -14.1653   17.6565 H   0  0  0  0  0  0  0  0  0  0  0  0
    4.5226  -13.9938   18.0446 H   0  0  0  0  0  0  0  0  0  0  0  0
    5.7231  -12.9974   18.8603 H   0  0  0  0  0  0  0  0  0  0  0  0
    5.5523  -16.0700   18.9339 H   0  0  0  0  0  0  0  0  0  0  0  0
    7.7239  -15.7637   19.5102 H   0  0  0  0  0  0  0  0  0  0  0  0
    7.0431  -15.6472   21.1387 H   0  0  0  0  0  0  0  0  0  0  0  0
    7.5425  -13.3188   21.1444 H   0  0  0  0  0  0  0  0  0  0  0  0
    9.4330  -11.9320   21.0197 H   0  0  0  0  0  0  0  0  0  0  0  0
    7.9797  -11.2803   20.2371 H   0  0  0  0  0  0  0  0  0  0  0  0
   11.5514  -12.0290   18.4600 H   0  0  0  0  0  0  0  0  0  0  0  0
   12.2580   -9.5250   17.4819 H   0  0  0  0  0  0  0  0  0  0  0  0
    3.3764  -14.6677   19.9671 H   0  0  0  0  0  0  0  0  0  0  0  0
    4.3725  -14.2455   21.3897 H   0  0  0  0  0  0  0  0  0  0  0  0
    4.7001  -16.0455   22.1027 H   0  0  0  0  0  0  0  0  0  0  0  0
    5.0162  -16.8340   20.9294 H   0  0  0  0  0  0  0  0  0  0  0  0
    3.8122  -16.7844   20.0651 H   0  0  0  0  0  0  0  0  0  0  0  0
    2.5663  -18.4846   23.8016 H   0  0  0  0  0  0  0  0  0  0  0  0
  1  2  1  0
  2  3  1  0
  3  4  1  0
  4  5  1  0
  5  6  2  0
  5  7  1  0
  7  8  1  0
  8  9  1  0
  9 10  2  0
 10 11  1  0
 11 12  1  0
  2 13  1  0
 13 14  1  0
 14 15  1  0
 14 16  1  0
 16 17  2  0
 16 18  1  0
 18 19  2  0
 19 20  1  0
 20 21  2  0
 21 22  1  0
 21 23  1  0
 12  8  2  0
 23 18  1  0
  1 24  1  0
  1 25  1  0
  1 26  1  0
  2 27  1  0
  3 28  1  0
  3 29  1  0
  4 30  1  0
  7 31  1  0
  7 32  1  0
  9 33  1  0
 10 34  1  0
 13 35  1  0
 13 36  1  0
 15 37  1  0
 15 38  1  0
 15 39  1  0
 19 40  1  0
M  END
>  <Energy>  (922) 
783.33955890024856

>  <compound_id>  (922) 
42524

>  <target_id>  (922) 
1

>  <reference_id>  (922) 
49

>  <inspiration_ids>  (922) 
[71, 49]

>  <energy_score>  (922) 
698.3010487487317

>  <distance_score>  (922) 
15.24212493122448

>  <path>  (922) 
/opt/xchem-fragalysis-2/maxwin/BulkDock/SCRATCH/511022/C42524-P49/C42524-P49.minimised.mol

>  <scratch_subdir>  (922) 
/opt/xchem-fragalysis-2/maxwin/BulkDock/SCRATCH/511022/C42524-P49

>  <fragmenstein_runtime>  (922) 
20.914368867874146

>  <fragmenstein_outcome>  (922) 
too moved

>  <fragmenstein_mode>  (922) 
expansion

>  <fragmenstein_error>  (922) 


$$$$
C53913-P71
     RDKit          3D

 40 41  0  0  0  0  0  0  0  0999 V2000
    2.8391  -10.4805   21.3180 C   0  0  0  0  0  0  0  0  0  0  0  0
    3.3836  -11.8129   21.9974 C   0  0  0  0  0  0  0  0  0  0  0  0
    3.7838  -12.6713   20.6853 C   0  0  0  0  0  0  0  0  0  0  0  0
    4.6986  -11.9507   19.7665 N   0  0  0  0  0  0  0  0  0  0  0  0
    6.0546  -11.4764   19.9536 C   0  0  0  0  0  0  0  0  0  0  0  0
    6.8122  -11.6152   20.8730 O   0  0  0  0  0  0  0  0  0  0  0  0
    6.5353  -10.6551   18.7320 C   0  0  0  0  0  0  0  0  0  0  0  0
    6.8278   -9.2154   19.0456 C   0  0  0  0  0  0  0  0  0  0  0  0
    7.6037   -8.6621   20.0953 C   0  0  0  0  0  0  0  0  0  0  0  0
    7.6208   -7.3250   20.0673 N   0  0  0  0  0  0  0  0  0  0  0  0
    6.8589   -6.9771   18.9669 O   0  0  0  0  0  0  0  0  0  0  0  0
    6.4113   -8.0990   18.3549 C   0  0  0  0  0  0  0  0  0  0  0  0
    2.6493  -12.5984   23.6292 C   0  0  0  0  0  0  0  0  0  0  0  0
    1.2565  -13.9304   23.8765 N   0  0  0  0  0  0  0  0  0  0  0  0
    1.3585  -13.2216   25.5656 C   0  0  0  0  0  0  0  0  0  0  0  0
   -0.3420  -14.0063   23.2278 C   0  0  0  0  0  0  0  0  0  0  0  0
   -0.9259  -13.1664   22.5542 O   0  0  0  0  0  0  0  0  0  0  0  0
   -1.2788  -15.1484   23.5550 C   0  0  0  0  0  0  0  0  0  0  0  0
   -1.4837  -16.4463   23.0898 C   0  0  0  0  0  0  0  0  0  0  0  0
   -2.5370  -17.1855   23.6647 N   0  0  0  0  0  0  0  0  0  0  0  0
   -3.2307  -16.4062   24.4571 C   0  0  0  0  0  0  0  0  0  0  0  0
   -4.5368  -16.9814   25.4461 Cl  0  0  0  0  0  0  0  0  0  0  0  0
   -2.7611  -14.7660   24.4953 S   0  0  0  0  0  0  0  0  0  0  0  0
    3.1803   -9.5862   21.8506 H   0  0  0  0  0  0  0  0  0  0  0  0
    1.7562  -10.5137   21.1626 H   0  0  0  0  0  0  0  0  0  0  0  0
    3.2323  -10.3009   20.3133 H   0  0  0  0  0  0  0  0  0  0  0  0
    4.2913  -11.3359   22.3461 H   0  0  0  0  0  0  0  0  0  0  0  0
    4.2243  -13.6506   20.8350 H   0  0  0  0  0  0  0  0  0  0  0  0
    2.8930  -12.8381   20.0680 H   0  0  0  0  0  0  0  0  0  0  0  0
    4.3919  -11.7154   18.8304 H   0  0  0  0  0  0  0  0  0  0  0  0
    7.4508  -11.1351   18.3638 H   0  0  0  0  0  0  0  0  0  0  0  0
    5.8110  -10.7097   17.9119 H   0  0  0  0  0  0  0  0  0  0  0  0
    8.1334   -9.1809   20.8850 H   0  0  0  0  0  0  0  0  0  0  0  0
    5.8100   -7.9385   17.4712 H   0  0  0  0  0  0  0  0  0  0  0  0
    2.1202  -11.7822   24.0051 H   0  0  0  0  0  0  0  0  0  0  0  0
    3.4132  -13.1523   24.1295 H   0  0  0  0  0  0  0  0  0  0  0  0
    2.0961  -13.7129   26.1912 H   0  0  0  0  0  0  0  0  0  0  0  0
    0.5026  -13.4361   26.1664 H   0  0  0  0  0  0  0  0  0  0  0  0
    1.3763  -12.1405   25.6488 H   0  0  0  0  0  0  0  0  0  0  0  0
   -0.8482  -16.9366   22.3606 H   0  0  0  0  0  0  0  0  0  0  0  0
  1  2  1  0
  2  3  1  0
  3  4  1  0
  4  5  1  0
  5  6  2  0
  5  7  1  0
  7  8  1  0
  8  9  1  0
  9 10  2  0
 10 11  1  0
 11 12  1  0
  2 13  1  0
 13 14  1  0
 14 15  1  0
 14 16  1  0
 16 17  2  0
 16 18  1  0
 18 19  2  0
 19 20  1  0
 20 21  2  0
 21 22  1  0
 21 23  1  0
 12  8  2  0
 23 18  1  0
  1 24  1  0
  1 25  1  0
  1 26  1  0
  2 27  1  0
  3 28  1  0
  3 29  1  0
  4 30  1  0
  7 31  1  0
  7 32  1  0
  9 33  1  0
 12 34  1  0
 13 35  1  0
 13 36  1  0
 15 37  1  0
 15 38  1  0
 15 39  1  0
 19 40  1  0
M  END
>  <Energy>  (923) 
277.13878460682059

>  <compound_id>  (923) 
53913

>  <target_id>  (923) 
1

>  <reference_id>  (923) 
71

>  <inspiration_ids>  (923) 
[71, 49]

>  <energy_score>  (923) 
200.85009417334743

>  <distance_score>  (923) 
14.501068248879388

>  <path>  (923) 
/opt/xchem-fragalysis-2/maxwin/BulkDock/SCRATCH/511022/C53913-P71/C53913-P71.minimised.mol

>  <scratch_subdir>  (923) 
/opt/xchem-fragalysis-2/maxwin/BulkDock/SCRATCH/511022/C53913-P71

>  <fragmenstein_runtime>  (923) 
17.27902865409851

>  <fragmenstein_outcome>  (923) 
too moved

>  <fragmenstein_mode>  (923) 
expansion

>  <fragmenstein_error>  (923) 


$$$$
C53913-P49
     RDKit          3D

 40 41  0  0  0  0  0  0  0  0999 V2000
    2.5167  -10.6108   18.7403 C   0  0  0  0  0  0  0  0  0  0  0  0
    1.3069  -10.2530   19.6360 C   0  0  0  0  0  0  0  0  0  0  0  0
    0.9190   -8.7642   19.3822 C   0  0  0  0  0  0  0  0  0  0  0  0
    1.9884   -7.9375   18.8162 N   0  0  0  0  0  0  0  0  0  0  0  0
    3.0658   -7.2118   19.4540 C   0  0  0  0  0  0  0  0  0  0  0  0
    3.3113   -7.0378   20.6138 O   0  0  0  0  0  0  0  0  0  0  0  0
    3.9961   -6.5559   18.3972 C   0  0  0  0  0  0  0  0  0  0  0  0
    5.4604   -6.8622   18.5501 C   0  0  0  0  0  0  0  0  0  0  0  0
    6.2102   -7.1961   19.7047 C   0  0  0  0  0  0  0  0  0  0  0  0
    7.4949   -7.4367   19.4349 N   0  0  0  0  0  0  0  0  0  0  0  0
    7.6292   -7.2063   18.0764 O   0  0  0  0  0  0  0  0  0  0  0  0
    6.4219   -6.8613   17.5615 C   0  0  0  0  0  0  0  0  0  0  0  0
    0.0536  -11.2932   19.3434 C   0  0  0  0  0  0  0  0  0  0  0  0
   -0.7408  -12.1562   20.4159 N   0  0  0  0  0  0  0  0  0  0  0  0
    0.5411  -12.9104   20.4436 C   0  0  0  0  0  0  0  0  0  0  0  0
   -1.8667  -13.0832   20.2529 C   0  0  0  0  0  0  0  0  0  0  0  0
   -2.4060  -13.4850   19.2535 O   0  0  0  0  0  0  0  0  0  0  0  0
   -2.5065  -13.5588   21.5472 C   0  0  0  0  0  0  0  0  0  0  0  0
   -3.0597  -12.8640   22.6190 C   0  0  0  0  0  0  0  0  0  0  0  0
   -3.7582  -13.5930   23.5939 N   0  0  0  0  0  0  0  0  0  0  0  0
   -3.7678  -14.8558   23.2492 C   0  0  0  0  0  0  0  0  0  0  0  0
   -4.5551  -16.0668   24.2183 Cl  0  0  0  0  0  0  0  0  0  0  0  0
   -2.9530  -15.2477   21.7964 S   0  0  0  0  0  0  0  0  0  0  0  0
    3.4117  -10.0459   19.0084 H   0  0  0  0  0  0  0  0  0  0  0  0
    2.7493  -11.6762   18.8161 H   0  0  0  0  0  0  0  0  0  0  0  0
    2.2886  -10.4158   17.6861 H   0  0  0  0  0  0  0  0  0  0  0  0
    1.6058  -10.3508   20.6828 H   0  0  0  0  0  0  0  0  0  0  0  0
    0.0901   -8.6924   18.6713 H   0  0  0  0  0  0  0  0  0  0  0  0
    0.5987   -8.3063   20.3238 H   0  0  0  0  0  0  0  0  0  0  0  0
    2.0481   -7.8050   17.8135 H   0  0  0  0  0  0  0  0  0  0  0  0
    3.6893   -6.8381   17.3838 H   0  0  0  0  0  0  0  0  0  0  0  0
    3.8488   -5.4717   18.4782 H   0  0  0  0  0  0  0  0  0  0  0  0
    5.8721   -7.2925   20.7280 H   0  0  0  0  0  0  0  0  0  0  0  0
    6.4134   -6.6604   16.5005 H   0  0  0  0  0  0  0  0  0  0  0  0
    0.2161  -11.8692   18.4158 H   0  0  0  0  0  0  0  0  0  0  0  0
   -0.7708  -10.6350   19.0304 H   0  0  0  0  0  0  0  0  0  0  0  0
    0.3704  -13.7471   21.1330 H   0  0  0  0  0  0  0  0  0  0  0  0
    1.3740  -12.3743   20.9037 H   0  0  0  0  0  0  0  0  0  0  0  0
    0.7971  -13.4292   19.5076 H   0  0  0  0  0  0  0  0  0  0  0  0
   -3.0239  -11.7865   22.7178 H   0  0  0  0  0  0  0  0  0  0  0  0
  1  2  1  0
  2  3  1  0
  3  4  1  0
  4  5  1  0
  5  6  2  0
  5  7  1  0
  7  8  1  0
  8  9  1  0
  9 10  2  0
 10 11  1  0
 11 12  1  0
  2 13  1  0
 13 14  1  0
 14 15  1  0
 14 16  1  0
 16 17  2  0
 16 18  1  0
 18 19  2  0
 19 20  1  0
 20 21  2  0
 21 22  1  0
 21 23  1  0
 12  8  2  0
 23 18  1  0
  1 24  1  0
  1 25  1  0
  1 26  1  0
  2 27  1  0
  3 28  1  0
  3 29  1  0
  4 30  1  0
  7 31  1  0
  7 32  1  0
  9 33  1  0
 12 34  1  0
 13 35  1  0
 13 36  1  0
 15 37  1  0
 15 38  1  0
 15 39  1  0
 19 40  1  0
M  END
>  <Energy>  (924) 
95.322418585822675

>  <compound_id>  (924) 
53913

>  <target_id>  (924) 
1

>  <reference_id>  (924) 
49

>  <inspiration_ids>  (924) 
[71, 49]

>  <energy_score>  (924) 
19.033728152347265

>  <distance_score>  (924) 
14.943596267874353

>  <path>  (924) 
/opt/xchem-fragalysis-2/maxwin/BulkDock/SCRATCH/511022/C53913-P49/C53913-P49.minimised.mol

>  <scratch_subdir>  (924) 
/opt/xchem-fragalysis-2/maxwin/BulkDock/SCRATCH/511022/C53913-P49

>  <fragmenstein_runtime>  (924) 
26.154106616973877

>  <fragmenstein_outcome>  (924) 
too moved

>  <fragmenstein_mode>  (924) 
expansion

>  <fragmenstein_error>  (924) 


$$$$
C25456-P71
     RDKit          3D

 37 38  0  0  0  0  0  0  0  0999 V2000
    8.1024   -6.8594   25.5748 C   0  0  0  0  0  0  0  0  0  0  0  0
    7.0799   -7.7957   24.8621 C   0  0  0  0  0  0  0  0  0  0  0  0
    6.1251   -7.1238   23.6032 C   0  0  0  0  0  0  0  0  0  0  0  0
    7.4263   -6.5014   22.7725 C   0  0  0  0  0  0  0  0  0  0  0  0
    8.1438   -6.8755   21.4844 C   0  0  0  0  0  0  0  0  0  0  0  0
    7.9468   -6.4861   20.3455 O   0  0  0  0  0  0  0  0  0  0  0  0
    9.1965   -7.6959   21.7270 O   0  0  0  0  0  0  0  0  0  0  0  0
    4.5753   -8.2420   23.1949 N   0  0  0  0  0  0  0  0  0  0  0  0
    4.6711  -10.2973   23.0134 C   0  0  0  0  0  0  0  0  0  0  0  0
    3.5927  -12.0552   22.8174 C   0  0  0  0  0  0  0  0  0  0  0  0
    3.2805  -13.3948   23.7554 C   0  0  0  0  0  0  0  0  0  0  0  0
    2.8683  -14.5996   23.1106 N   0  0  0  0  0  0  0  0  0  0  0  0
    1.5204  -14.5161   23.2869 C   0  0  0  0  0  0  0  0  0  0  0  0
    0.0581  -14.9694   21.9916 C   0  0  0  0  0  0  0  0  0  0  0  0
   -1.3487  -15.3903   22.3494 C   0  0  0  0  0  0  0  0  0  0  0  0
   -2.0559  -16.6145   22.1081 C   0  0  0  0  0  0  0  0  0  0  0  0
   -1.6204  -17.2933   21.0186 C   0  0  0  0  0  0  0  0  0  0  0  0
   -0.5706  -16.8410   20.3062 N   0  0  0  0  0  0  0  0  0  0  0  0
    0.2270  -15.7910   20.8165 C   0  0  0  0  0  0  0  0  0  0  0  0
    1.9825  -12.4005   23.8515 S   0  0  0  0  0  0  0  0  0  0  0  0
    9.1214   -7.0283   25.2082 H   0  0  0  0  0  0  0  0  0  0  0  0
    8.1332   -7.1044   26.6421 H   0  0  0  0  0  0  0  0  0  0  0  0
    7.8590   -5.7995   25.4722 H   0  0  0  0  0  0  0  0  0  0  0  0
    7.6793   -8.6249   24.4577 H   0  0  0  0  0  0  0  0  0  0  0  0
    6.4368   -8.2770   25.6055 H   0  0  0  0  0  0  0  0  0  0  0  0
    5.6148   -6.3021   24.0430 H   0  0  0  0  0  0  0  0  0  0  0  0
    7.4321   -5.4115   22.8729 H   0  0  0  0  0  0  0  0  0  0  0  0
    8.2968   -6.6373   23.4112 H   0  0  0  0  0  0  0  0  0  0  0  0
    9.6746   -7.7713   20.8772 H   0  0  0  0  0  0  0  0  0  0  0  0
    5.0938   -8.5454   24.0614 H   0  0  0  0  0  0  0  0  0  0  0  0
    3.5789  -10.2009   23.0927 H   0  0  0  0  0  0  0  0  0  0  0  0
    5.2664  -10.6891   22.1957 H   0  0  0  0  0  0  0  0  0  0  0  0
    3.7384  -13.6599   24.7268 H   0  0  0  0  0  0  0  0  0  0  0  0
   -1.9899  -14.8261   21.5879 H   0  0  0  0  0  0  0  0  0  0  0  0
   -2.9680  -16.8645   22.6313 H   0  0  0  0  0  0  0  0  0  0  0  0
   -2.1111  -18.1809   20.6386 H   0  0  0  0  0  0  0  0  0  0  0  0
    1.1249  -15.6962   20.1980 H   0  0  0  0  0  0  0  0  0  0  0  0
  1  2  1  0
  2  3  1  0
  3  4  1  0
  4  5  1  0
  5  6  2  0
  5  7  1  0
  3  8  1  0
  8  9  1  0
  9 10  1  0
 10 11  2  0
 11 12  1  0
 12 13  2  0
 13 14  1  0
 14 15  2  0
 15 16  1  0
 16 17  2  0
 17 18  1  0
 18 19  2  0
 13 20  1  0
 20 10  1  0
 19 14  1  0
  1 21  1  0
  1 22  1  0
  1 23  1  0
  2 24  1  0
  2 25  1  0
  3 26  1  0
  4 27  1  0
  4 28  1  0
  7 29  1  0
  8 30  1  0
  9 31  1  0
  9 32  1  0
 11 33  1  0
 15 34  1  0
 16 35  1  0
 17 36  1  0
 19 37  1  0
M  END
>  <Energy>  (925) 
799.27216933846796

>  <compound_id>  (925) 
25456

>  <target_id>  (925) 
1

>  <reference_id>  (925) 
71

>  <inspiration_ids>  (925) 
[71, 49]

>  <energy_score>  (925) 
724.1382932786778

>  <distance_score>  (925) 
14.460345296632829

>  <path>  (925) 
/opt/xchem-fragalysis-2/maxwin/BulkDock/SCRATCH/511022/C25456-P71/C25456-P71.minimised.mol

>  <scratch_subdir>  (925) 
/opt/xchem-fragalysis-2/maxwin/BulkDock/SCRATCH/511022/C25456-P71

>  <fragmenstein_runtime>  (925) 
14.623717784881592

>  <fragmenstein_outcome>  (925) 
too moved

>  <fragmenstein_mode>  (925) 
expansion

>  <fragmenstein_error>  (925) 


$$$$
C25456-P49
     RDKit          3D

 37 38  0  0  0  0  0  0  0  0999 V2000
    6.6494   -7.4365   25.0500 C   0  0  0  0  0  0  0  0  0  0  0  0
    5.4068   -8.3184   25.3384 C   0  0  0  0  0  0  0  0  0  0  0  0
    5.5903   -9.9527   25.3688 C   0  0  0  0  0  0  0  0  0  0  0  0
    6.8323  -10.4295   24.5594 C   0  0  0  0  0  0  0  0  0  0  0  0
    7.0091   -9.8206   23.1939 C   0  0  0  0  0  0  0  0  0  0  0  0
    6.0977   -9.5700   22.4254 O   0  0  0  0  0  0  0  0  0  0  0  0
    8.2957   -9.5864   22.8572 O   0  0  0  0  0  0  0  0  0  0  0  0
    4.3367  -11.0286   26.0453 N   0  0  0  0  0  0  0  0  0  0  0  0
    3.5842  -12.7564   25.9270 C   0  0  0  0  0  0  0  0  0  0  0  0
    2.9425  -14.4226   26.8301 C   0  0  0  0  0  0  0  0  0  0  0  0
    1.5596  -14.5130   26.6650 C   0  0  0  0  0  0  0  0  0  0  0  0
    0.5341  -15.0864   27.5086 N   0  0  0  0  0  0  0  0  0  0  0  0
    0.7334  -15.4919   28.8262 C   0  0  0  0  0  0  0  0  0  0  0  0
    0.1297  -17.1305   29.5046 C   0  0  0  0  0  0  0  0  0  0  0  0
   -1.1111  -17.8194   29.1572 C   0  0  0  0  0  0  0  0  0  0  0  0
   -1.6685  -18.9714   29.7591 C   0  0  0  0  0  0  0  0  0  0  0  0
   -0.8868  -19.6428   30.6426 C   0  0  0  0  0  0  0  0  0  0  0  0
    0.3890  -19.2835   30.8136 N   0  0  0  0  0  0  0  0  0  0  0  0
    0.8424  -18.1205   30.1952 C   0  0  0  0  0  0  0  0  0  0  0  0
    2.0027  -14.4848   29.0058 S   0  0  0  0  0  0  0  0  0  0  0  0
    7.5185   -7.7810   25.6170 H   0  0  0  0  0  0  0  0  0  0  0  0
    6.8900   -7.4070   23.9861 H   0  0  0  0  0  0  0  0  0  0  0  0
    6.4374   -6.4062   25.3561 H   0  0  0  0  0  0  0  0  0  0  0  0
    5.0548   -8.0377   26.3415 H   0  0  0  0  0  0  0  0  0  0  0  0
    4.6143   -7.9755   24.6972 H   0  0  0  0  0  0  0  0  0  0  0  0
    6.0652   -9.7460   26.3263 H   0  0  0  0  0  0  0  0  0  0  0  0
    7.7161  -10.1576   25.1544 H   0  0  0  0  0  0  0  0  0  0  0  0
    6.9182  -11.4985   24.4332 H   0  0  0  0  0  0  0  0  0  0  0  0
    8.9542   -9.8384   23.5310 H   0  0  0  0  0  0  0  0  0  0  0  0
    3.6928  -10.7925   25.3066 H   0  0  0  0  0  0  0  0  0  0  0  0
    3.8597  -13.0471   24.9063 H   0  0  0  0  0  0  0  0  0  0  0  0
    2.5951  -12.3265   25.7410 H   0  0  0  0  0  0  0  0  0  0  0  0
    1.2946  -13.5884   26.1980 H   0  0  0  0  0  0  0  0  0  0  0  0
   -1.6844  -17.5440   28.2750 H   0  0  0  0  0  0  0  0  0  0  0  0
   -2.6449  -19.3400   29.4688 H   0  0  0  0  0  0  0  0  0  0  0  0
   -1.2148  -20.5354   31.1613 H   0  0  0  0  0  0  0  0  0  0  0  0
    1.9195  -18.0573   30.3109 H   0  0  0  0  0  0  0  0  0  0  0  0
  1  2  1  0
  2  3  1  0
  3  4  1  0
  4  5  1  0
  5  6  2  0
  5  7  1  0
  3  8  1  0
  8  9  1  0
  9 10  1  0
 10 11  2  0
 11 12  1  0
 12 13  2  0
 13 14  1  0
 14 15  2  0
 15 16  1  0
 16 17  2  0
 17 18  1  0
 18 19  2  0
 13 20  1  0
 20 10  1  0
 19 14  1  0
  1 21  1  0
  1 22  1  0
  1 23  1  0
  2 24  1  0
  2 25  1  0
  3 26  1  0
  4 27  1  0
  4 28  1  0
  7 29  1  0
  8 30  1  0
  9 31  1  0
  9 32  1  0
 11 33  1  0
 15 34  1  0
 16 35  1  0
 17 36  1  0
 19 37  1  0
M  END
>  <Energy>  (926) 
526.28934059677476

>  <compound_id>  (926) 
25456

>  <target_id>  (926) 
1

>  <reference_id>  (926) 
49

>  <inspiration_ids>  (926) 
[71, 49]

>  <energy_score>  (926) 
451.1554645369798

>  <distance_score>  (926) 
14.228016915382085

>  <path>  (926) 
/opt/xchem-fragalysis-2/maxwin/BulkDock/SCRATCH/511022/C25456-P49/C25456-P49.minimised.mol

>  <scratch_subdir>  (926) 
/opt/xchem-fragalysis-2/maxwin/BulkDock/SCRATCH/511022/C25456-P49

>  <fragmenstein_runtime>  (926) 
8.16506814956665

>  <fragmenstein_outcome>  (926) 
too moved

>  <fragmenstein_mode>  (926) 
expansion

>  <fragmenstein_error>  (926) 


$$$$
C25458-P71
     RDKit          3D

 37 39  0  0  0  0  0  0  0  0999 V2000
    5.4575  -11.8351   28.3249 O   0  0  0  0  0  0  0  0  0  0  0  0
    5.1667  -10.6424   28.2867 C   0  0  0  0  0  0  0  0  0  0  0  0
    3.8184  -10.1799   28.2494 O   0  0  0  0  0  0  0  0  0  0  0  0
    2.2382  -10.8347   28.4373 C   0  0  0  0  0  0  0  0  0  0  0  0
    1.4027  -11.6339   27.0498 C   0  0  0  0  0  0  0  0  0  0  0  0
    1.7672  -13.3393   26.8076 C   0  0  0  0  0  0  0  0  0  0  0  0
    0.3761  -13.4276   26.9532 N   0  0  0  0  0  0  0  0  0  0  0  0
   -0.7001  -14.2955   27.4508 C   0  0  0  0  0  0  0  0  0  0  0  0
   -1.5400  -15.4446   28.1749 C   0  0  0  0  0  0  0  0  0  0  0  0
   -1.1359  -16.2950   29.2278 C   0  0  0  0  0  0  0  0  0  0  0  0
   -2.0387  -17.1814   29.8628 C   0  0  0  0  0  0  0  0  0  0  0  0
   -3.3801  -17.2376   29.4853 C   0  0  0  0  0  0  0  0  0  0  0  0
   -3.8265  -16.3993   28.4731 C   0  0  0  0  0  0  0  0  0  0  0  0
   -2.9264  -15.5151   27.8444 C   0  0  0  0  0  0  0  0  0  0  0  0
    0.9773  -13.5409   26.0954 S   0  0  0  0  0  0  0  0  0  0  0  0
    6.3203   -9.5638   28.2494 C   0  0  0  0  0  0  0  0  0  0  0  0
    7.1899   -9.8148   29.3623 O   0  0  0  0  0  0  0  0  0  0  0  0
    7.2614   -9.2916   27.0475 C   0  0  0  0  0  0  0  0  0  0  0  0
    7.5731  -10.1746   26.0139 C   0  0  0  0  0  0  0  0  0  0  0  0
    8.4661   -9.8023   24.9865 C   0  0  0  0  0  0  0  0  0  0  0  0
    9.0540   -8.5489   25.0155 C   0  0  0  0  0  0  0  0  0  0  0  0
    8.8307   -7.6741   26.0118 N   0  0  0  0  0  0  0  0  0  0  0  0
    7.9901   -8.0840   27.0043 C   0  0  0  0  0  0  0  0  0  0  0  0
    1.6244   -9.9419   28.4695 H   0  0  0  0  0  0  0  0  0  0  0  0
    2.2228  -11.3008   29.4145 H   0  0  0  0  0  0  0  0  0  0  0  0
    2.6558  -13.9205   27.2913 H   0  0  0  0  0  0  0  0  0  0  0  0
   -0.1076  -16.2739   29.5746 H   0  0  0  0  0  0  0  0  0  0  0  0
   -1.6819  -17.8213   30.6670 H   0  0  0  0  0  0  0  0  0  0  0  0
   -4.0669  -17.9166   29.9851 H   0  0  0  0  0  0  0  0  0  0  0  0
   -4.8716  -16.4102   28.1759 H   0  0  0  0  0  0  0  0  0  0  0  0
   -3.3174  -14.8518   27.0728 H   0  0  0  0  0  0  0  0  0  0  0  0
    5.8584   -8.6165   28.4669 H   0  0  0  0  0  0  0  0  0  0  0  0
    7.3183  -10.7847   29.3918 H   0  0  0  0  0  0  0  0  0  0  0  0
    7.1509  -11.1784   25.9953 H   0  0  0  0  0  0  0  0  0  0  0  0
    8.6944  -10.4934   24.1796 H   0  0  0  0  0  0  0  0  0  0  0  0
    9.7400   -8.2236   24.2392 H   0  0  0  0  0  0  0  0  0  0  0  0
    7.9142   -7.3696   27.8236 H   0  0  0  0  0  0  0  0  0  0  0  0
  1  2  2  0
  2  3  1  0
  3  4  1  0
  4  5  1  0
  5  6  2  0
  6  7  1  0
  7  8  2  0
  8  9  1  0
  9 10  2  0
 10 11  1  0
 11 12  2  0
 12 13  1  0
 13 14  2  0
  8 15  1  0
  2 16  1  0
 16 17  1  0
 16 18  1  0
 18 19  2  0
 19 20  1  0
 20 21  2  0
 21 22  1  0
 22 23  2  0
 15  5  1  0
 23 18  1  0
 14  9  1  0
  4 24  1  0
  4 25  1  0
  6 26  1  0
 10 27  1  0
 11 28  1  0
 12 29  1  0
 13 30  1  0
 14 31  1  0
 16 32  1  0
 17 33  1  0
 19 34  1  0
 20 35  1  0
 21 36  1  0
 23 37  1  0
M  END
>  <Energy>  (927) 
810.03802853875186

>  <compound_id>  (927) 
25458

>  <target_id>  (927) 
1

>  <reference_id>  (927) 
71

>  <inspiration_ids>  (927) 
[71, 49]

>  <energy_score>  (927) 
682.1090082453155

>  <distance_score>  (927) 
14.222474257931045

>  <path>  (927) 
/opt/xchem-fragalysis-2/maxwin/BulkDock/SCRATCH/511022/C25458-P71/C25458-P71.minimised.mol

>  <scratch_subdir>  (927) 
/opt/xchem-fragalysis-2/maxwin/BulkDock/SCRATCH/511022/C25458-P71

>  <fragmenstein_runtime>  (927) 
9.55906867980957

>  <fragmenstein_outcome>  (927) 
too moved

>  <fragmenstein_mode>  (927) 
expansion

>  <fragmenstein_error>  (927) 


$$$$
C25458-P49
     RDKit          3D

 37 39  0  0  0  0  0  0  0  0999 V2000
    1.7357  -12.1935   25.3917 O   0  0  0  0  0  0  0  0  0  0  0  0
    2.7018  -12.6751   26.0308 C   0  0  0  0  0  0  0  0  0  0  0  0
    2.2125  -14.2026   26.8532 O   0  0  0  0  0  0  0  0  0  0  0  0
    0.9672  -14.8393   28.2182 C   0  0  0  0  0  0  0  0  0  0  0  0
    0.4534  -16.5053   29.2629 C   0  0  0  0  0  0  0  0  0  0  0  0
    0.8570  -17.7407   29.9829 C   0  0  0  0  0  0  0  0  0  0  0  0
   -0.1115  -18.4232   30.8053 N   0  0  0  0  0  0  0  0  0  0  0  0
   -1.3113  -18.2321   30.3115 C   0  0  0  0  0  0  0  0  0  0  0  0
   -2.6445  -18.1971   30.9526 C   0  0  0  0  0  0  0  0  0  0  0  0
   -2.7312  -18.2576   32.3447 C   0  0  0  0  0  0  0  0  0  0  0  0
   -3.8871  -17.8311   33.0019 C   0  0  0  0  0  0  0  0  0  0  0  0
   -5.0209  -17.4399   32.2927 C   0  0  0  0  0  0  0  0  0  0  0  0
   -4.9844  -17.4500   30.9091 C   0  0  0  0  0  0  0  0  0  0  0  0
   -3.8132  -17.8364   30.2468 C   0  0  0  0  0  0  0  0  0  0  0  0
   -1.0836  -17.9343   28.6568 S   0  0  0  0  0  0  0  0  0  0  0  0
    4.2235  -11.4422   25.9515 C   0  0  0  0  0  0  0  0  0  0  0  0
    3.9675  -10.0872   26.3254 O   0  0  0  0  0  0  0  0  0  0  0  0
    5.4992  -10.4692   24.9408 C   0  0  0  0  0  0  0  0  0  0  0  0
    5.6738  -10.4879   23.5515 C   0  0  0  0  0  0  0  0  0  0  0  0
    6.6216   -9.6761   22.8660 C   0  0  0  0  0  0  0  0  0  0  0  0
    7.4101   -8.8039   23.5832 C   0  0  0  0  0  0  0  0  0  0  0  0
    7.2722   -8.6556   24.9062 N   0  0  0  0  0  0  0  0  0  0  0  0
    6.3261   -9.4457   25.5231 C   0  0  0  0  0  0  0  0  0  0  0  0
    1.0892  -14.1145   29.0269 H   0  0  0  0  0  0  0  0  0  0  0  0
    0.1422  -14.5822   27.6021 H   0  0  0  0  0  0  0  0  0  0  0  0
    1.8756  -18.0551   30.1726 H   0  0  0  0  0  0  0  0  0  0  0  0
   -1.8532  -18.5170   32.9351 H   0  0  0  0  0  0  0  0  0  0  0  0
   -3.8635  -17.7666   34.0850 H   0  0  0  0  0  0  0  0  0  0  0  0
   -5.9113  -17.1041   32.8154 H   0  0  0  0  0  0  0  0  0  0  0  0
   -5.8417  -17.1146   30.3339 H   0  0  0  0  0  0  0  0  0  0  0  0
   -3.8171  -17.7756   29.1611 H   0  0  0  0  0  0  0  0  0  0  0  0
    4.0053  -11.7435   24.9022 H   0  0  0  0  0  0  0  0  0  0  0  0
    4.3990   -9.8442   27.1559 H   0  0  0  0  0  0  0  0  0  0  0  0
    4.9688  -11.0749   22.9634 H   0  0  0  0  0  0  0  0  0  0  0  0
    6.7003   -9.7096   21.7838 H   0  0  0  0  0  0  0  0  0  0  0  0
    8.1500   -8.1717   23.1051 H   0  0  0  0  0  0  0  0  0  0  0  0
    6.2402   -9.1767   26.5747 H   0  0  0  0  0  0  0  0  0  0  0  0
  1  2  2  0
  2  3  1  0
  3  4  1  0
  4  5  1  0
  5  6  2  0
  6  7  1  0
  7  8  2  0
  8  9  1  0
  9 10  2  0
 10 11  1  0
 11 12  2  0
 12 13  1  0
 13 14  2  0
  8 15  1  0
  2 16  1  0
 16 17  1  0
 16 18  1  0
 18 19  2  0
 19 20  1  0
 20 21  2  0
 21 22  1  0
 22 23  2  0
 15  5  1  0
 23 18  1  0
 14  9  1  0
  4 24  1  0
  4 25  1  0
  6 26  1  0
 10 27  1  0
 11 28  1  0
 12 29  1  0
 13 30  1  0
 14 31  1  0
 16 32  1  0
 17 33  1  0
 19 34  1  0
 20 35  1  0
 21 36  1  0
 23 37  1  0
M  END
>  <Energy>  (928) 
651.165032361371

>  <compound_id>  (928) 
25458

>  <target_id>  (928) 
1

>  <reference_id>  (928) 
49

>  <inspiration_ids>  (928) 
[71, 49]

>  <energy_score>  (928) 
523.236012067934

>  <distance_score>  (928) 
14.17618067308127

>  <path>  (928) 
/opt/xchem-fragalysis-2/maxwin/BulkDock/SCRATCH/511022/C25458-P49/C25458-P49.minimised.mol

>  <scratch_subdir>  (928) 
/opt/xchem-fragalysis-2/maxwin/BulkDock/SCRATCH/511022/C25458-P49

>  <fragmenstein_runtime>  (928) 
9.235451459884644

>  <fragmenstein_outcome>  (928) 
too moved

>  <fragmenstein_mode>  (928) 
expansion

>  <fragmenstein_error>  (928) 


$$$$
C42572-P71
     RDKit          3D

 42 43  0  0  0  0  0  0  0  0999 V2000
    1.3234   -4.3833   24.6975 C   0  0  0  0  0  0  0  0  0  0  0  0
    0.5013   -5.0925   23.6073 C   0  0  0  0  0  0  0  0  0  0  0  0
    1.4679   -5.6074   22.4989 C   0  0  0  0  0  0  0  0  0  0  0  0
    2.1501   -4.5959   21.7087 N   0  0  0  0  0  0  0  0  0  0  0  0
    3.5328   -4.1416   21.7296 C   0  0  0  0  0  0  0  0  0  0  0  0
    4.4392   -4.4310   22.4584 O   0  0  0  0  0  0  0  0  0  0  0  0
    3.7673   -3.2184   20.5134 C   0  0  0  0  0  0  0  0  0  0  0  0
    4.9822   -2.3560   20.6180 C   0  0  0  0  0  0  0  0  0  0  0  0
    5.2941   -1.2603   21.3865 C   0  0  0  0  0  0  0  0  0  0  0  0
    6.4931   -0.7827   20.8452 C   0  0  0  0  0  0  0  0  0  0  0  0
    6.9434   -1.5574   19.8537 N   0  0  0  0  0  0  0  0  0  0  0  0
    5.9832   -2.5549   19.7091 O   0  0  0  0  0  0  0  0  0  0  0  0
   -0.5991   -6.5149   23.9633 C   0  0  0  0  0  0  0  0  0  0  0  0
   -1.8676   -7.2432   25.2999 N   0  0  0  0  0  0  0  0  0  0  0  0
   -1.0852   -6.4411   24.6236 C   0  0  0  0  0  0  0  0  0  0  0  0
   -3.0133   -8.3367   24.9180 C   0  0  0  0  0  0  0  0  0  0  0  0
   -3.3658   -8.7699   23.9044 O   0  0  0  0  0  0  0  0  0  0  0  0
   -3.6706   -8.9788   26.1290 C   0  0  0  0  0  0  0  0  0  0  0  0
   -3.6029   -8.8089   27.5008 C   0  0  0  0  0  0  0  0  0  0  0  0
   -4.2842   -9.7432   28.3062 N   0  0  0  0  0  0  0  0  0  0  0  0
   -4.8826  -10.6534   27.5806 C   0  0  0  0  0  0  0  0  0  0  0  0
   -5.5699  -11.7002   28.1010 N   0  0  0  0  0  0  0  0  0  0  0  0
   -4.6766  -10.4290   25.8885 S   0  0  0  0  0  0  0  0  0  0  0  0
    0.7732   -4.3224   25.6398 H   0  0  0  0  0  0  0  0  0  0  0  0
    1.5395   -3.3566   24.3795 H   0  0  0  0  0  0  0  0  0  0  0  0
    2.2920   -4.8529   24.8795 H   0  0  0  0  0  0  0  0  0  0  0  0
   -0.1851   -4.3516   23.1716 H   0  0  0  0  0  0  0  0  0  0  0  0
    0.9071   -6.2064   21.7735 H   0  0  0  0  0  0  0  0  0  0  0  0
    2.2326   -6.2580   22.9373 H   0  0  0  0  0  0  0  0  0  0  0  0
    1.6840   -4.2026   20.8985 H   0  0  0  0  0  0  0  0  0  0  0  0
    3.8354   -3.8572   19.6249 H   0  0  0  0  0  0  0  0  0  0  0  0
    2.8986   -2.5606   20.3880 H   0  0  0  0  0  0  0  0  0  0  0  0
    4.7024   -0.8338   22.1829 H   0  0  0  0  0  0  0  0  0  0  0  0
    7.0634    0.0877   21.1389 H   0  0  0  0  0  0  0  0  0  0  0  0
   -1.0955   -6.7278   22.8537 H   0  0  0  0  0  0  0  0  0  0  0  0
    0.1893   -7.4321   23.8239 H   0  0  0  0  0  0  0  0  0  0  0  0
   -1.2113   -5.3205   25.1946 H   0  0  0  0  0  0  0  0  0  0  0  0
   -0.4377   -6.4503   25.7024 H   0  0  0  0  0  0  0  0  0  0  0  0
   -2.1906   -5.8942   24.2818 H   0  0  0  0  0  0  0  0  0  0  0  0
   -3.0390   -8.0252   27.9936 H   0  0  0  0  0  0  0  0  0  0  0  0
   -5.3494  -11.8980   29.0722 H   0  0  0  0  0  0  0  0  0  0  0  0
   -5.6287  -12.5365   27.5319 H   0  0  0  0  0  0  0  0  0  0  0  0
  1  2  1  0
  2  3  1  0
  3  4  1  0
  4  5  1  0
  5  6  2  0
  5  7  1  0
  7  8  1  0
  8  9  2  0
  9 10  1  0
 10 11  2  0
 11 12  1  0
  2 13  1  0
 13 14  1  0
 14 15  1  0
 14 16  1  0
 16 17  2  0
 16 18  1  0
 18 19  2  0
 19 20  1  0
 20 21  2  0
 21 22  1  0
 21 23  1  0
 12  8  1  0
 23 18  1  0
  1 24  1  0
  1 25  1  0
  1 26  1  0
  2 27  1  0
  3 28  1  0
  3 29  1  0
  4 30  1  0
  7 31  1  0
  7 32  1  0
  9 33  1  0
 10 34  1  0
 13 35  1  0
 13 36  1  0
 15 37  1  0
 15 38  1  0
 15 39  1  0
 19 40  1  0
 22 41  1  0
 22 42  1  0
M  END
>  <Energy>  (929) 
741.95906669324472

>  <compound_id>  (929) 
42572

>  <target_id>  (929) 
1

>  <reference_id>  (929) 
71

>  <inspiration_ids>  (929) 
[71, 49]

>  <energy_score>  (929) 
698.1071905322578

>  <distance_score>  (929) 
14.789347093008633

>  <path>  (929) 
/opt/xchem-fragalysis-2/maxwin/BulkDock/SCRATCH/511022/C42572-P71/C42572-P71.minimised.mol

>  <scratch_subdir>  (929) 
/opt/xchem-fragalysis-2/maxwin/BulkDock/SCRATCH/511022/C42572-P71

>  <fragmenstein_runtime>  (929) 
28.540173292160034

>  <fragmenstein_outcome>  (929) 
too moved

>  <fragmenstein_mode>  (929) 
expansion

>  <fragmenstein_error>  (929) 


$$$$
C42572-P49
     RDKit          3D

 42 43  0  0  0  0  0  0  0  0999 V2000
    5.1322  -13.9649   18.6127 C   0  0  0  0  0  0  0  0  0  0  0  0
    5.4958  -15.1368   19.5486 C   0  0  0  0  0  0  0  0  0  0  0  0
    7.0143  -15.1568   19.8943 C   0  0  0  0  0  0  0  0  0  0  0  0
    7.6537  -13.8725   20.1253 N   0  0  0  0  0  0  0  0  0  0  0  0
    8.4736  -13.0406   19.2483 C   0  0  0  0  0  0  0  0  0  0  0  0
    8.8900  -13.2458   18.1441 O   0  0  0  0  0  0  0  0  0  0  0  0
    8.8056  -11.7064   19.9687 C   0  0  0  0  0  0  0  0  0  0  0  0
    9.7463  -10.8004   19.2228 C   0  0  0  0  0  0  0  0  0  0  0  0
   10.9612  -10.9605   18.5936 C   0  0  0  0  0  0  0  0  0  0  0  0
   11.3105   -9.6712   18.1615 C   0  0  0  0  0  0  0  0  0  0  0  0
   10.3948   -8.7628   18.5038 N   0  0  0  0  0  0  0  0  0  0  0  0
    9.4090   -9.4731   19.1741 O   0  0  0  0  0  0  0  0  0  0  0  0
    4.4058  -15.3034   21.0037 C   0  0  0  0  0  0  0  0  0  0  0  0
    2.9858  -16.5275   21.6636 N   0  0  0  0  0  0  0  0  0  0  0  0
    3.7642  -15.8208   20.8758 C   0  0  0  0  0  0  0  0  0  0  0  0
    1.3909  -16.7918   21.3195 C   0  0  0  0  0  0  0  0  0  0  0  0
    0.6933  -16.3750   20.4975 O   0  0  0  0  0  0  0  0  0  0  0  0
    0.7464  -17.6849   22.3731 C   0  0  0  0  0  0  0  0  0  0  0  0
    1.2278  -18.4302   23.4386 C   0  0  0  0  0  0  0  0  0  0  0  0
    0.2852  -18.9959   24.3195 N   0  0  0  0  0  0  0  0  0  0  0  0
   -0.9353  -18.6975   23.9512 C   0  0  0  0  0  0  0  0  0  0  0  0
   -2.0378  -19.0432   24.6620 N   0  0  0  0  0  0  0  0  0  0  0  0
   -1.0169  -17.7920   22.4878 S   0  0  0  0  0  0  0  0  0  0  0  0
    5.4334  -14.2230   17.5903 H   0  0  0  0  0  0  0  0  0  0  0  0
    5.6243  -13.0225   18.8336 H   0  0  0  0  0  0  0  0  0  0  0  0
    4.0499  -13.8063   18.5996 H   0  0  0  0  0  0  0  0  0  0  0  0
    5.3277  -16.0649   18.9791 H   0  0  0  0  0  0  0  0  0  0  0  0
    7.5461  -15.6078   19.0480 H   0  0  0  0  0  0  0  0  0  0  0  0
    7.2046  -15.7851   20.7689 H   0  0  0  0  0  0  0  0  0  0  0  0
    7.4189  -13.3429   20.9640 H   0  0  0  0  0  0  0  0  0  0  0  0
    9.2530  -11.9428   20.9414 H   0  0  0  0  0  0  0  0  0  0  0  0
    7.8600  -11.1801   20.1430 H   0  0  0  0  0  0  0  0  0  0  0  0
   11.5066  -11.8829   18.4589 H   0  0  0  0  0  0  0  0  0  0  0  0
   12.1900   -9.3533   17.6185 H   0  0  0  0  0  0  0  0  0  0  0  0
    5.2684  -15.5216   21.8235 H   0  0  0  0  0  0  0  0  0  0  0  0
    4.2226  -14.1842   21.4256 H   0  0  0  0  0  0  0  0  0  0  0  0
    2.7405  -15.0946   20.6071 H   0  0  0  0  0  0  0  0  0  0  0  0
    3.3393  -16.0575   19.7128 H   0  0  0  0  0  0  0  0  0  0  0  0
    4.1602  -16.9666   20.5197 H   0  0  0  0  0  0  0  0  0  0  0  0
    2.2800  -18.5661   23.6588 H   0  0  0  0  0  0  0  0  0  0  0  0
   -1.8585  -19.2841   25.6299 H   0  0  0  0  0  0  0  0  0  0  0  0
   -2.8605  -18.4676   24.5297 H   0  0  0  0  0  0  0  0  0  0  0  0
  1  2  1  0
  2  3  1  0
  3  4  1  0
  4  5  1  0
  5  6  2  0
  5  7  1  0
  7  8  1  0
  8  9  2  0
  9 10  1  0
 10 11  2  0
 11 12  1  0
  2 13  1  0
 13 14  1  0
 14 15  1  0
 14 16  1  0
 16 17  2  0
 16 18  1  0
 18 19  2  0
 19 20  1  0
 20 21  2  0
 21 22  1  0
 21 23  1  0
 12  8  1  0
 23 18  1  0
  1 24  1  0
  1 25  1  0
  1 26  1  0
  2 27  1  0
  3 28  1  0
  3 29  1  0
  4 30  1  0
  7 31  1  0
  7 32  1  0
  9 33  1  0
 10 34  1  0
 13 35  1  0
 13 36  1  0
 15 37  1  0
 15 38  1  0
 15 39  1  0
 19 40  1  0
 22 41  1  0
 22 42  1  0
M  END
>  <Energy>  (930) 
734.15503792923869

>  <compound_id>  (930) 
42572

>  <target_id>  (930) 
1

>  <reference_id>  (930) 
49

>  <inspiration_ids>  (930) 
[71, 49]

>  <energy_score>  (930) 
690.3031617682634

>  <distance_score>  (930) 
15.212947829273258

>  <path>  (930) 
/opt/xchem-fragalysis-2/maxwin/BulkDock/SCRATCH/511022/C42572-P49/C42572-P49.minimised.mol

>  <scratch_subdir>  (930) 
/opt/xchem-fragalysis-2/maxwin/BulkDock/SCRATCH/511022/C42572-P49

>  <fragmenstein_runtime>  (930) 
16.997092962265015

>  <fragmenstein_outcome>  (930) 
too moved

>  <fragmenstein_mode>  (930) 
expansion

>  <fragmenstein_error>  (930) 


$$$$
C42573-P71
     RDKit          3D

 43 44  0  0  0  0  0  0  0  0999 V2000
   -2.4801  -17.4923   26.6763 C   0  0  0  0  0  0  0  0  0  0  0  0
   -2.5094  -16.1099   27.5919 C   0  0  0  0  0  0  0  0  0  0  0  0
   -3.6438  -16.6213   28.3468 N   0  0  0  0  0  0  0  0  0  0  0  0
   -3.5676  -16.1176   29.5205 C   0  0  0  0  0  0  0  0  0  0  0  0
   -2.4790  -14.7168   29.3723 S   0  0  0  0  0  0  0  0  0  0  0  0
   -2.3748  -14.3913   27.1503 C   0  0  0  0  0  0  0  0  0  0  0  0
   -3.1323  -12.4665   27.0195 C   0  0  0  0  0  0  0  0  0  0  0  0
   -4.2532  -12.1803   27.3128 O   0  0  0  0  0  0  0  0  0  0  0  0
   -2.0648  -11.1407   26.2763 N   0  0  0  0  0  0  0  0  0  0  0  0
   -2.4381   -9.2641   25.6967 C   0  0  0  0  0  0  0  0  0  0  0  0
   -0.8963   -9.9132   27.4814 C   0  0  0  0  0  0  0  0  0  0  0  0
   -0.4675   -7.9660   27.2539 C   0  0  0  0  0  0  0  0  0  0  0  0
    0.1844   -7.1072   28.3487 C   0  0  0  0  0  0  0  0  0  0  0  0
   -0.6607   -6.9657   25.9496 C   0  0  0  0  0  0  0  0  0  0  0  0
   -0.0188   -5.6688   25.9873 N   0  0  0  0  0  0  0  0  0  0  0  0
   -0.5667   -4.3446   25.9394 C   0  0  0  0  0  0  0  0  0  0  0  0
   -1.7045   -3.9682   25.9362 O   0  0  0  0  0  0  0  0  0  0  0  0
    0.5700   -3.3074   25.9218 C   0  0  0  0  0  0  0  0  0  0  0  0
    1.4828   -3.4741   24.7563 C   0  0  0  0  0  0  0  0  0  0  0  0
    1.3208   -3.8248   23.4369 C   0  0  0  0  0  0  0  0  0  0  0  0
    2.6253   -3.8035   22.9097 C   0  0  0  0  0  0  0  0  0  0  0  0
    3.5368   -3.4461   23.8193 N   0  0  0  0  0  0  0  0  0  0  0  0
    2.8094   -3.2397   24.9893 O   0  0  0  0  0  0  0  0  0  0  0  0
   -1.5200  -18.0089   26.7849 H   0  0  0  0  0  0  0  0  0  0  0  0
   -2.7722  -17.2621   25.6514 H   0  0  0  0  0  0  0  0  0  0  0  0
   -3.2245  -18.2232   27.0237 H   0  0  0  0  0  0  0  0  0  0  0  0
   -4.0443  -16.5710   30.3786 H   0  0  0  0  0  0  0  0  0  0  0  0
   -2.5754   -9.4010   24.5764 H   0  0  0  0  0  0  0  0  0  0  0  0
   -1.5826   -8.6498   25.6134 H   0  0  0  0  0  0  0  0  0  0  0  0
   -3.0657   -8.5394   26.1304 H   0  0  0  0  0  0  0  0  0  0  0  0
   -1.1311   -9.9842   28.5689 H   0  0  0  0  0  0  0  0  0  0  0  0
    0.1092  -10.3413   27.5576 H   0  0  0  0  0  0  0  0  0  0  0  0
   -1.3667   -7.5252   27.7176 H   0  0  0  0  0  0  0  0  0  0  0  0
   -0.0513   -7.5337   29.3298 H   0  0  0  0  0  0  0  0  0  0  0  0
   -0.3062   -6.1196   28.4332 H   0  0  0  0  0  0  0  0  0  0  0  0
    1.2010   -6.8180   28.1567 H   0  0  0  0  0  0  0  0  0  0  0  0
   -0.3091   -7.4194   25.0194 H   0  0  0  0  0  0  0  0  0  0  0  0
   -1.7188   -6.7078   25.8479 H   0  0  0  0  0  0  0  0  0  0  0  0
    0.9920   -5.6135   25.8886 H   0  0  0  0  0  0  0  0  0  0  0  0
    0.1256   -2.3060   25.8883 H   0  0  0  0  0  0  0  0  0  0  0  0
    1.1199   -3.3915   26.8664 H   0  0  0  0  0  0  0  0  0  0  0  0
    0.3989   -4.0810   22.9351 H   0  0  0  0  0  0  0  0  0  0  0  0
    2.9508   -4.0329   21.9049 H   0  0  0  0  0  0  0  0  0  0  0  0
  1  2  1  0
  2  3  1  0
  3  4  2  0
  4  5  1  0
  5  6  1  0
  6  7  1  0
  7  8  2  0
  7  9  1  0
  9 10  1  0
  9 11  1  0
 11 12  1  0
 12 13  1  0
 12 14  1  0
 14 15  1  0
 15 16  1  0
 16 17  2  0
 16 18  1  0
 18 19  1  0
 19 20  2  0
 20 21  1  0
 21 22  2  0
 22 23  1  0
  6  2  2  0
 23 19  1  0
  1 24  1  0
  1 25  1  0
  1 26  1  0
  4 27  1  0
 10 28  1  0
 10 29  1  0
 10 30  1  0
 11 31  1  0
 11 32  1  0
 12 33  1  0
 13 34  1  0
 13 35  1  0
 13 36  1  0
 14 37  1  0
 14 38  1  0
 15 39  1  0
 18 40  1  0
 18 41  1  0
 20 42  1  0
 21 43  1  0
M  END
>  <Energy>  (931) 
761.5565867338214

>  <compound_id>  (931) 
42573

>  <target_id>  (931) 
1

>  <reference_id>  (931) 
71

>  <inspiration_ids>  (931) 
[71, 49]

>  <energy_score>  (931) 
684.0328796448734

>  <distance_score>  (931) 
15.83933942685781

>  <path>  (931) 
/opt/xchem-fragalysis-2/maxwin/BulkDock/SCRATCH/511022/C42573-P71/C42573-P71.minimised.mol

>  <scratch_subdir>  (931) 
/opt/xchem-fragalysis-2/maxwin/BulkDock/SCRATCH/511022/C42573-P71

>  <fragmenstein_runtime>  (931) 
20.236650466918945

>  <fragmenstein_outcome>  (931) 
too moved

>  <fragmenstein_mode>  (931) 
expansion

>  <fragmenstein_error>  (931) 


$$$$
C42573-P49
     RDKit          3D

 43 44  0  0  0  0  0  0  0  0999 V2000
    2.6647  -18.3963   24.1562 C   0  0  0  0  0  0  0  0  0  0  0  0
    2.6335  -17.8456   22.7793 C   0  0  0  0  0  0  0  0  0  0  0  0
    1.5407  -18.2395   22.0193 N   0  0  0  0  0  0  0  0  0  0  0  0
    1.6583  -17.7477   20.8151 C   0  0  0  0  0  0  0  0  0  0  0  0
    3.0547  -16.7850   20.5282 S   0  0  0  0  0  0  0  0  0  0  0  0
    3.5937  -17.0236   22.1387 C   0  0  0  0  0  0  0  0  0  0  0  0
    4.9429  -16.6064   22.6674 C   0  0  0  0  0  0  0  0  0  0  0  0
    5.1289  -16.9421   23.8079 O   0  0  0  0  0  0  0  0  0  0  0  0
    5.8440  -15.9643   21.7138 N   0  0  0  0  0  0  0  0  0  0  0  0
    7.2703  -15.6375   21.8203 C   0  0  0  0  0  0  0  0  0  0  0  0
    5.7117  -14.3550   21.8096 C   0  0  0  0  0  0  0  0  0  0  0  0
    6.5796  -13.2595   20.9292 C   0  0  0  0  0  0  0  0  0  0  0  0
    6.4709  -11.8257   21.5045 C   0  0  0  0  0  0  0  0  0  0  0  0
    6.1432  -13.3125   19.4592 C   0  0  0  0  0  0  0  0  0  0  0  0
    6.9790  -12.4832   18.6170 N   0  0  0  0  0  0  0  0  0  0  0  0
    6.7780  -11.1519   18.1049 C   0  0  0  0  0  0  0  0  0  0  0  0
    5.8320  -10.4196   18.1803 O   0  0  0  0  0  0  0  0  0  0  0  0
    8.0191  -10.6702   17.3372 C   0  0  0  0  0  0  0  0  0  0  0  0
    8.7389   -9.6265   18.1092 C   0  0  0  0  0  0  0  0  0  0  0  0
    8.3592   -8.5433   18.8671 C   0  0  0  0  0  0  0  0  0  0  0  0
    9.5728   -7.9617   19.2714 C   0  0  0  0  0  0  0  0  0  0  0  0
   10.6309   -8.6211   18.7945 N   0  0  0  0  0  0  0  0  0  0  0  0
   10.1018   -9.6752   18.0620 O   0  0  0  0  0  0  0  0  0  0  0  0
    3.5421  -19.0356   24.2949 H   0  0  0  0  0  0  0  0  0  0  0  0
    1.7817  -19.0024   24.3644 H   0  0  0  0  0  0  0  0  0  0  0  0
    2.7238  -17.5598   24.8541 H   0  0  0  0  0  0  0  0  0  0  0  0
    0.9207  -17.9228   20.0435 H   0  0  0  0  0  0  0  0  0  0  0  0
    7.7210  -16.6125   22.0645 H   0  0  0  0  0  0  0  0  0  0  0  0
    7.7159  -15.4234   20.8435 H   0  0  0  0  0  0  0  0  0  0  0  0
    7.6057  -15.0365   22.6788 H   0  0  0  0  0  0  0  0  0  0  0  0
    4.6570  -14.1747   21.5566 H   0  0  0  0  0  0  0  0  0  0  0  0
    5.7689  -14.0877   22.8793 H   0  0  0  0  0  0  0  0  0  0  0  0
    7.6530  -13.4690   20.9830 H   0  0  0  0  0  0  0  0  0  0  0  0
    6.7504  -11.8226   22.5631 H   0  0  0  0  0  0  0  0  0  0  0  0
    5.4449  -11.4529   21.4229 H   0  0  0  0  0  0  0  0  0  0  0  0
    7.1369  -11.1313   20.9842 H   0  0  0  0  0  0  0  0  0  0  0  0
    6.2132  -14.3334   19.0713 H   0  0  0  0  0  0  0  0  0  0  0  0
    5.1084  -12.9694   19.3536 H   0  0  0  0  0  0  0  0  0  0  0  0
    7.8737  -12.8309   18.2918 H   0  0  0  0  0  0  0  0  0  0  0  0
    7.6773  -10.2566   16.3811 H   0  0  0  0  0  0  0  0  0  0  0  0
    8.6890  -11.5007   17.0920 H   0  0  0  0  0  0  0  0  0  0  0  0
    7.3516   -8.2217   19.0880 H   0  0  0  0  0  0  0  0  0  0  0  0
    9.7357   -7.0873   19.8851 H   0  0  0  0  0  0  0  0  0  0  0  0
  1  2  1  0
  2  3  1  0
  3  4  2  0
  4  5  1  0
  5  6  1  0
  6  7  1  0
  7  8  2  0
  7  9  1  0
  9 10  1  0
  9 11  1  0
 11 12  1  0
 12 13  1  0
 12 14  1  0
 14 15  1  0
 15 16  1  0
 16 17  2  0
 16 18  1  0
 18 19  1  0
 19 20  2  0
 20 21  1  0
 21 22  2  0
 22 23  1  0
  6  2  2  0
 23 19  1  0
  1 24  1  0
  1 25  1  0
  1 26  1  0
  4 27  1  0
 10 28  1  0
 10 29  1  0
 10 30  1  0
 11 31  1  0
 11 32  1  0
 12 33  1  0
 13 34  1  0
 13 35  1  0
 13 36  1  0
 14 37  1  0
 14 38  1  0
 15 39  1  0
 18 40  1  0
 18 41  1  0
 20 42  1  0
 21 43  1  0
M  END
>  <Energy>  (932) 
90.89682178857187

>  <compound_id>  (932) 
42573

>  <target_id>  (932) 
1

>  <reference_id>  (932) 
49

>  <inspiration_ids>  (932) 
[71, 49]

>  <energy_score>  (932) 
13.373114699622647

>  <distance_score>  (932) 
16.68416493435174

>  <path>  (932) 
/opt/xchem-fragalysis-2/maxwin/BulkDock/SCRATCH/511022/C42573-P49/C42573-P49.minimised.mol

>  <scratch_subdir>  (932) 
/opt/xchem-fragalysis-2/maxwin/BulkDock/SCRATCH/511022/C42573-P49

>  <fragmenstein_runtime>  (932) 
22.450020790100098

>  <fragmenstein_outcome>  (932) 
too moved

>  <fragmenstein_mode>  (932) 
expansion

>  <fragmenstein_error>  (932) 


$$$$
C53912-P71
     RDKit          3D

 43 44  0  0  0  0  0  0  0  0999 V2000
    1.4028  -20.5317   25.3757 C   0  0  0  0  0  0  0  0  0  0  0  0
    1.9576  -19.6313   26.4284 C   0  0  0  0  0  0  0  0  0  0  0  0
    1.1203  -19.4399   27.5341 N   0  0  0  0  0  0  0  0  0  0  0  0
    1.7652  -18.7527   28.4420 C   0  0  0  0  0  0  0  0  0  0  0  0
    3.3395  -18.2262   28.0156 S   0  0  0  0  0  0  0  0  0  0  0  0
    3.2039  -18.9597   26.4656 C   0  0  0  0  0  0  0  0  0  0  0  0
    4.4081  -19.1267   25.5925 C   0  0  0  0  0  0  0  0  0  0  0  0
    5.0252  -20.1318   25.8333 O   0  0  0  0  0  0  0  0  0  0  0  0
    4.5974  -18.1293   24.5379 N   0  0  0  0  0  0  0  0  0  0  0  0
    5.5234  -18.1104   23.3940 C   0  0  0  0  0  0  0  0  0  0  0  0
    5.5926  -16.9334   25.0525 C   0  0  0  0  0  0  0  0  0  0  0  0
    6.0861  -15.6217   24.1455 C   0  0  0  0  0  0  0  0  0  0  0  0
    7.0533  -14.6718   24.9029 C   0  0  0  0  0  0  0  0  0  0  0  0
    4.8761  -14.8372   23.6248 C   0  0  0  0  0  0  0  0  0  0  0  0
    5.2231  -13.8389   22.6474 N   0  0  0  0  0  0  0  0  0  0  0  0
    5.8701  -13.9557   21.3703 C   0  0  0  0  0  0  0  0  0  0  0  0
    6.3585  -14.9039   20.8246 O   0  0  0  0  0  0  0  0  0  0  0  0
    5.8779  -12.5962   20.6712 C   0  0  0  0  0  0  0  0  0  0  0  0
    6.7898  -11.6494   21.3591 C   0  0  0  0  0  0  0  0  0  0  0  0
    8.1315  -11.4281   21.1451 C   0  0  0  0  0  0  0  0  0  0  0  0
    8.5440  -10.4608   22.0090 O   0  0  0  0  0  0  0  0  0  0  0  0
    7.4203  -10.1435   22.7057 C   0  0  0  0  0  0  0  0  0  0  0  0
    6.3447  -10.8249   22.3759 N   0  0  0  0  0  0  0  0  0  0  0  0
    1.7781  -20.2479   24.3876 H   0  0  0  0  0  0  0  0  0  0  0  0
    0.3101  -20.4762   25.3505 H   0  0  0  0  0  0  0  0  0  0  0  0
    1.6953  -21.5667   25.5762 H   0  0  0  0  0  0  0  0  0  0  0  0
    1.3484  -18.5347   29.4148 H   0  0  0  0  0  0  0  0  0  0  0  0
    6.5902  -18.2723   23.6070 H   0  0  0  0  0  0  0  0  0  0  0  0
    5.2730  -17.3531   22.6473 H   0  0  0  0  0  0  0  0  0  0  0  0
    5.2703  -19.0438   22.8671 H   0  0  0  0  0  0  0  0  0  0  0  0
    5.0514  -16.5115   25.9104 H   0  0  0  0  0  0  0  0  0  0  0  0
    6.4770  -17.4115   25.5066 H   0  0  0  0  0  0  0  0  0  0  0  0
    6.6793  -15.9877   23.2997 H   0  0  0  0  0  0  0  0  0  0  0  0
    7.9171  -15.2344   25.2712 H   0  0  0  0  0  0  0  0  0  0  0  0
    7.4216  -13.8726   24.2523 H   0  0  0  0  0  0  0  0  0  0  0  0
    6.5517  -14.2178   25.7635 H   0  0  0  0  0  0  0  0  0  0  0  0
    4.1579  -15.4998   23.1353 H   0  0  0  0  0  0  0  0  0  0  0  0
    4.3752  -14.3205   24.4455 H   0  0  0  0  0  0  0  0  0  0  0  0
    4.8560  -12.8964   22.7476 H   0  0  0  0  0  0  0  0  0  0  0  0
    4.8560  -12.2007   20.6391 H   0  0  0  0  0  0  0  0  0  0  0  0
    6.1924  -12.7405   19.6308 H   0  0  0  0  0  0  0  0  0  0  0  0
    8.8783  -11.8331   20.4772 H   0  0  0  0  0  0  0  0  0  0  0  0
    7.5215   -9.3717   23.4553 H   0  0  0  0  0  0  0  0  0  0  0  0
  1  2  1  0
  2  3  1  0
  3  4  2  0
  4  5  1  0
  5  6  1  0
  6  7  1  0
  7  8  2  0
  7  9  1  0
  9 10  1  0
  9 11  1  0
 11 12  1  0
 12 13  1  0
 12 14  1  0
 14 15  1  0
 15 16  1  0
 16 17  2  0
 16 18  1  0
 18 19  1  0
 19 20  2  0
 20 21  1  0
 21 22  1  0
 22 23  2  0
  6  2  2  0
 23 19  1  0
  1 24  1  0
  1 25  1  0
  1 26  1  0
  4 27  1  0
 10 28  1  0
 10 29  1  0
 10 30  1  0
 11 31  1  0
 11 32  1  0
 12 33  1  0
 13 34  1  0
 13 35  1  0
 13 36  1  0
 14 37  1  0
 14 38  1  0
 15 39  1  0
 18 40  1  0
 18 41  1  0
 20 42  1  0
 22 43  1  0
M  END
>  <Energy>  (933) 
106.42517449098447

>  <compound_id>  (933) 
53912

>  <target_id>  (933) 
1

>  <reference_id>  (933) 
71

>  <inspiration_ids>  (933) 
[71, 49]

>  <energy_score>  (933) 
6.85832942954562

>  <distance_score>  (933) 
17.079744305464803

>  <path>  (933) 
/opt/xchem-fragalysis-2/maxwin/BulkDock/SCRATCH/511022/C53912-P71/C53912-P71.minimised.mol

>  <scratch_subdir>  (933) 
/opt/xchem-fragalysis-2/maxwin/BulkDock/SCRATCH/511022/C53912-P71

>  <fragmenstein_runtime>  (933) 
17.16672134399414

>  <fragmenstein_outcome>  (933) 
too moved

>  <fragmenstein_mode>  (933) 
expansion

>  <fragmenstein_error>  (933) 


$$$$
C53912-P49
     RDKit          3D

 43 44  0  0  0  0  0  0  0  0999 V2000
    0.6324  -21.3634   27.4855 C   0  0  0  0  0  0  0  0  0  0  0  0
    0.5423  -21.1733   26.0074 C   0  0  0  0  0  0  0  0  0  0  0  0
   -0.7195  -21.4656   25.4900 N   0  0  0  0  0  0  0  0  0  0  0  0
   -0.6810  -21.3616   24.1854 C   0  0  0  0  0  0  0  0  0  0  0  0
    0.8418  -20.9530   23.5001 S   0  0  0  0  0  0  0  0  0  0  0  0
    1.5332  -20.7768   25.0700 C   0  0  0  0  0  0  0  0  0  0  0  0
    3.0045  -20.4846   25.2719 C   0  0  0  0  0  0  0  0  0  0  0  0
    3.4309  -20.9082   26.3158 O   0  0  0  0  0  0  0  0  0  0  0  0
    3.7051  -19.8342   24.1519 N   0  0  0  0  0  0  0  0  0  0  0  0
    5.1429  -19.6069   23.9242 C   0  0  0  0  0  0  0  0  0  0  0  0
    3.7265  -18.2621   24.3530 C   0  0  0  0  0  0  0  0  0  0  0  0
    4.2060  -17.0927   23.3024 C   0  0  0  0  0  0  0  0  0  0  0  0
    5.6685  -16.5653   23.3841 C   0  0  0  0  0  0  0  0  0  0  0  0
    3.7301  -17.4036   21.8761 C   0  0  0  0  0  0  0  0  0  0  0  0
    3.7663  -16.2402   21.0250 N   0  0  0  0  0  0  0  0  0  0  0  0
    4.7850  -15.7541   20.1364 C   0  0  0  0  0  0  0  0  0  0  0  0
    5.8355  -16.2327   19.8143 O   0  0  0  0  0  0  0  0  0  0  0  0
    4.4217  -14.3613   19.6120 C   0  0  0  0  0  0  0  0  0  0  0  0
    3.0564  -14.2993   19.0346 C   0  0  0  0  0  0  0  0  0  0  0  0
    2.6539  -14.3344   17.7195 C   0  0  0  0  0  0  0  0  0  0  0  0
    1.2952  -14.2417   17.6908 O   0  0  0  0  0  0  0  0  0  0  0  0
    0.9448  -14.1592   19.0028 C   0  0  0  0  0  0  0  0  0  0  0  0
    1.9480  -14.1936   19.8517 N   0  0  0  0  0  0  0  0  0  0  0  0
   -0.2667  -20.9771   27.9767 H   0  0  0  0  0  0  0  0  0  0  0  0
    1.4941  -20.8477   27.9149 H   0  0  0  0  0  0  0  0  0  0  0  0
    0.7214  -22.4292   27.7175 H   0  0  0  0  0  0  0  0  0  0  0  0
   -1.5492  -21.5272   23.5624 H   0  0  0  0  0  0  0  0  0  0  0  0
    5.5510  -20.6293   23.9168 H   0  0  0  0  0  0  0  0  0  0  0  0
    5.3799  -19.2512   22.9212 H   0  0  0  0  0  0  0  0  0  0  0  0
    5.7110  -19.1524   24.7494 H   0  0  0  0  0  0  0  0  0  0  0  0
    4.1052  -18.0268   25.3626 H   0  0  0  0  0  0  0  0  0  0  0  0
    2.6479  -18.0575   24.4415 H   0  0  0  0  0  0  0  0  0  0  0  0
    3.6205  -16.2326   23.6497 H   0  0  0  0  0  0  0  0  0  0  0  0
    5.7553  -15.5861   22.9029 H   0  0  0  0  0  0  0  0  0  0  0  0
    6.3711  -17.2456   22.8956 H   0  0  0  0  0  0  0  0  0  0  0  0
    5.9669  -16.4506   24.4309 H   0  0  0  0  0  0  0  0  0  0  0  0
    4.3502  -18.1711   21.4059 H   0  0  0  0  0  0  0  0  0  0  0  0
    2.6929  -17.7539   21.8863 H   0  0  0  0  0  0  0  0  0  0  0  0
    3.0435  -15.5265   21.1240 H   0  0  0  0  0  0  0  0  0  0  0  0
    4.5168  -13.6507   20.4413 H   0  0  0  0  0  0  0  0  0  0  0  0
    5.1586  -14.0745   18.8523 H   0  0  0  0  0  0  0  0  0  0  0  0
    3.1544  -14.4137   16.7653 H   0  0  0  0  0  0  0  0  0  0  0  0
   -0.1109  -14.0765   19.2184 H   0  0  0  0  0  0  0  0  0  0  0  0
  1  2  1  0
  2  3  1  0
  3  4  2  0
  4  5  1  0
  5  6  1  0
  6  7  1  0
  7  8  2  0
  7  9  1  0
  9 10  1  0
  9 11  1  0
 11 12  1  0
 12 13  1  0
 12 14  1  0
 14 15  1  0
 15 16  1  0
 16 17  2  0
 16 18  1  0
 18 19  1  0
 19 20  2  0
 20 21  1  0
 21 22  1  0
 22 23  2  0
  6  2  2  0
 23 19  1  0
  1 24  1  0
  1 25  1  0
  1 26  1  0
  4 27  1  0
 10 28  1  0
 10 29  1  0
 10 30  1  0
 11 31  1  0
 11 32  1  0
 12 33  1  0
 13 34  1  0
 13 35  1  0
 13 36  1  0
 14 37  1  0
 14 38  1  0
 15 39  1  0
 18 40  1  0
 18 41  1  0
 20 42  1  0
 22 43  1  0
M  END
>  <Energy>  (934) 
101.07148187090071

>  <compound_id>  (934) 
53912

>  <target_id>  (934) 
1

>  <reference_id>  (934) 
49

>  <inspiration_ids>  (934) 
[71, 49]

>  <energy_score>  (934) 
1.5046368094656941

>  <distance_score>  (934) 
17.629001463510242

>  <path>  (934) 
/opt/xchem-fragalysis-2/maxwin/BulkDock/SCRATCH/511022/C53912-P49/C53912-P49.minimised.mol

>  <scratch_subdir>  (934) 
/opt/xchem-fragalysis-2/maxwin/BulkDock/SCRATCH/511022/C53912-P49

>  <fragmenstein_runtime>  (934) 
17.786799669265747

>  <fragmenstein_outcome>  (934) 
too moved

>  <fragmenstein_mode>  (934) 
expansion

>  <fragmenstein_error>  (934) 


$$$$
C42524-P71
     RDKit          3D

 40 41  0  0  0  0  0  0  0  0999 V2000
    1.8436   -8.2481   20.5692 C   0  0  0  0  0  0  0  0  0  0  0  0
    2.0175   -9.6801   20.0294 C   0  0  0  0  0  0  0  0  0  0  0  0
    3.2416  -10.4322   20.5881 C   0  0  0  0  0  0  0  0  0  0  0  0
    4.5068   -9.7169   20.4521 N   0  0  0  0  0  0  0  0  0  0  0  0
    5.0751   -9.0023   19.3333 C   0  0  0  0  0  0  0  0  0  0  0  0
    4.6176   -8.7463   18.2546 O   0  0  0  0  0  0  0  0  0  0  0  0
    6.5100   -8.5318   19.6329 C   0  0  0  0  0  0  0  0  0  0  0  0
    6.6131   -7.0693   19.9405 C   0  0  0  0  0  0  0  0  0  0  0  0
    5.6368   -6.0495   19.8383 C   0  0  0  0  0  0  0  0  0  0  0  0
    6.2455   -4.9276   20.3322 C   0  0  0  0  0  0  0  0  0  0  0  0
    7.5315   -5.2194   20.6465 O   0  0  0  0  0  0  0  0  0  0  0  0
    7.7715   -6.5587   20.3912 N   0  0  0  0  0  0  0  0  0  0  0  0
    0.5310  -10.7282   19.8283 C   0  0  0  0  0  0  0  0  0  0  0  0
   -0.7296  -11.5576   21.1116 N   0  0  0  0  0  0  0  0  0  0  0  0
   -0.0801  -10.6852   20.3777 C   0  0  0  0  0  0  0  0  0  0  0  0
   -1.4008  -13.0346   20.8565 C   0  0  0  0  0  0  0  0  0  0  0  0
   -1.3805  -13.7511   19.9496 O   0  0  0  0  0  0  0  0  0  0  0  0
   -2.2846  -13.4694   22.0043 C   0  0  0  0  0  0  0  0  0  0  0  0
   -3.4811  -12.9263   22.4723 C   0  0  0  0  0  0  0  0  0  0  0  0
   -4.1673  -13.6203   23.4760 N   0  0  0  0  0  0  0  0  0  0  0  0
   -3.5377  -14.7447   23.7152 C   0  0  0  0  0  0  0  0  0  0  0  0
   -4.1313  -15.8983   24.8729 Cl  0  0  0  0  0  0  0  0  0  0  0  0
   -2.1097  -15.0185   22.8110 S   0  0  0  0  0  0  0  0  0  0  0  0
    1.5300   -8.2333   21.6124 H   0  0  0  0  0  0  0  0  0  0  0  0
    2.7646   -7.6657   20.4838 H   0  0  0  0  0  0  0  0  0  0  0  0
    1.0734   -7.7280   19.9897 H   0  0  0  0  0  0  0  0  0  0  0  0
    2.2495   -9.5259   18.9634 H   0  0  0  0  0  0  0  0  0  0  0  0
    3.3712  -11.3705   20.0384 H   0  0  0  0  0  0  0  0  0  0  0  0
    3.1296  -10.6864   21.6403 H   0  0  0  0  0  0  0  0  0  0  0  0
    5.1544   -9.6704   21.2413 H   0  0  0  0  0  0  0  0  0  0  0  0
    7.1092   -8.7521   18.7399 H   0  0  0  0  0  0  0  0  0  0  0  0
    6.9515   -9.1246   20.4406 H   0  0  0  0  0  0  0  0  0  0  0  0
    4.6174   -6.1320   19.4867 H   0  0  0  0  0  0  0  0  0  0  0  0
    5.9363   -3.9061   20.4967 H   0  0  0  0  0  0  0  0  0  0  0  0
    1.1522  -11.7365   19.5508 H   0  0  0  0  0  0  0  0  0  0  0  0
    0.1843  -10.6064   18.6314 H   0  0  0  0  0  0  0  0  0  0  0  0
   -0.5524   -9.5072   20.5604 H   0  0  0  0  0  0  0  0  0  0  0  0
   -1.2247  -10.6051   19.8336 H   0  0  0  0  0  0  0  0  0  0  0  0
    0.2378  -10.3068   21.5114 H   0  0  0  0  0  0  0  0  0  0  0  0
   -3.9088  -12.0021   22.1003 H   0  0  0  0  0  0  0  0  0  0  0  0
  1  2  1  0
  2  3  1  0
  3  4  1  0
  4  5  1  0
  5  6  2  0
  5  7  1  0
  7  8  1  0
  8  9  1  0
  9 10  2  0
 10 11  1  0
 11 12  1  0
  2 13  1  0
 13 14  1  0
 14 15  1  0
 14 16  1  0
 16 17  2  0
 16 18  1  0
 18 19  2  0
 19 20  1  0
 20 21  2  0
 21 22  1  0
 21 23  1  0
 12  8  2  0
 23 18  1  0
  1 24  1  0
  1 25  1  0
  1 26  1  0
  2 27  1  0
  3 28  1  0
  3 29  1  0
  4 30  1  0
  7 31  1  0
  7 32  1  0
  9 33  1  0
 10 34  1  0
 13 35  1  0
 13 36  1  0
 15 37  1  0
 15 38  1  0
 15 39  1  0
 19 40  1  0
M  END
>  <Energy>  (935) 
774.08734853294288

>  <compound_id>  (935) 
42524

>  <target_id>  (935) 
1

>  <reference_id>  (935) 
71

>  <inspiration_ids>  (935) 
[71, 49]

>  <energy_score>  (935) 
689.0488383814316

>  <distance_score>  (935) 
14.782486908373984

>  <path>  (935) 
/opt/xchem-fragalysis-2/maxwin/BulkDock/SCRATCH/511022/C42524-P71/C42524-P71.minimised.mol

>  <scratch_subdir>  (935) 
/opt/xchem-fragalysis-2/maxwin/BulkDock/SCRATCH/511022/C42524-P71

>  <fragmenstein_runtime>  (935) 
20.742428064346313

>  <fragmenstein_outcome>  (935) 
too moved

>  <fragmenstein_mode>  (935) 
expansion

>  <fragmenstein_error>  (935) 


$$$$
C42524-P49
     RDKit          3D

 40 41  0  0  0  0  0  0  0  0999 V2000
    5.5278  -13.9928   18.4784 C   0  0  0  0  0  0  0  0  0  0  0  0
    5.6549  -15.1394   19.5154 C   0  0  0  0  0  0  0  0  0  0  0  0
    7.0673  -15.1691   20.1558 C   0  0  0  0  0  0  0  0  0  0  0  0
    7.7165  -13.8791   20.3100 N   0  0  0  0  0  0  0  0  0  0  0  0
    8.6455  -13.1644   19.4383 C   0  0  0  0  0  0  0  0  0  0  0  0
    9.1668  -13.4985   18.4126 O   0  0  0  0  0  0  0  0  0  0  0  0
    8.9442  -11.7697   20.0510 C   0  0  0  0  0  0  0  0  0  0  0  0
    9.8129  -10.8315   19.2411 C   0  0  0  0  0  0  0  0  0  0  0  0
   11.0359  -11.0859   18.5695 C   0  0  0  0  0  0  0  0  0  0  0  0
   11.4193   -9.8717   18.0676 C   0  0  0  0  0  0  0  0  0  0  0  0
   10.5111   -8.9306   18.4186 O   0  0  0  0  0  0  0  0  0  0  0  0
    9.5057   -9.5221   19.1685 N   0  0  0  0  0  0  0  0  0  0  0  0
    4.2252  -15.2048   20.6577 C   0  0  0  0  0  0  0  0  0  0  0  0
    3.1748  -16.5904   21.6312 N   0  0  0  0  0  0  0  0  0  0  0  0
    4.1100  -15.9614   20.9916 C   0  0  0  0  0  0  0  0  0  0  0  0
    1.5927  -16.8034   21.4205 C   0  0  0  0  0  0  0  0  0  0  0  0
    0.8403  -16.3443   20.6681 O   0  0  0  0  0  0  0  0  0  0  0  0
    0.9926  -17.7094   22.4911 C   0  0  0  0  0  0  0  0  0  0  0  0
    1.5084  -18.4060   23.5790 C   0  0  0  0  0  0  0  0  0  0  0  0
    0.5940  -18.9858   24.4818 N   0  0  0  0  0  0  0  0  0  0  0  0
   -0.6276  -18.7213   24.0914 C   0  0  0  0  0  0  0  0  0  0  0  0
   -2.0283  -19.1791   25.0166 Cl  0  0  0  0  0  0  0  0  0  0  0  0
   -0.7757  -17.8871   22.6147 S   0  0  0  0  0  0  0  0  0  0  0  0
    6.2323  -14.1653   17.6565 H   0  0  0  0  0  0  0  0  0  0  0  0
    4.5226  -13.9938   18.0446 H   0  0  0  0  0  0  0  0  0  0  0  0
    5.7231  -12.9974   18.8603 H   0  0  0  0  0  0  0  0  0  0  0  0
    5.5523  -16.0700   18.9339 H   0  0  0  0  0  0  0  0  0  0  0  0
    7.7239  -15.7637   19.5102 H   0  0  0  0  0  0  0  0  0  0  0  0
    7.0431  -15.6472   21.1387 H   0  0  0  0  0  0  0  0  0  0  0  0
    7.5425  -13.3188   21.1444 H   0  0  0  0  0  0  0  0  0  0  0  0
    9.4330  -11.9320   21.0197 H   0  0  0  0  0  0  0  0  0  0  0  0
    7.9797  -11.2803   20.2371 H   0  0  0  0  0  0  0  0  0  0  0  0
   11.5514  -12.0290   18.4600 H   0  0  0  0  0  0  0  0  0  0  0  0
   12.2580   -9.5250   17.4819 H   0  0  0  0  0  0  0  0  0  0  0  0
    3.3764  -14.6677   19.9671 H   0  0  0  0  0  0  0  0  0  0  0  0
    4.3725  -14.2455   21.3897 H   0  0  0  0  0  0  0  0  0  0  0  0
    4.7001  -16.0455   22.1027 H   0  0  0  0  0  0  0  0  0  0  0  0
    5.0162  -16.8340   20.9294 H   0  0  0  0  0  0  0  0  0  0  0  0
    3.8122  -16.7844   20.0651 H   0  0  0  0  0  0  0  0  0  0  0  0
    2.5663  -18.4846   23.8016 H   0  0  0  0  0  0  0  0  0  0  0  0
  1  2  1  0
  2  3  1  0
  3  4  1  0
  4  5  1  0
  5  6  2  0
  5  7  1  0
  7  8  1  0
  8  9  1  0
  9 10  2  0
 10 11  1  0
 11 12  1  0
  2 13  1  0
 13 14  1  0
 14 15  1  0
 14 16  1  0
 16 17  2  0
 16 18  1  0
 18 19  2  0
 19 20  1  0
 20 21  2  0
 21 22  1  0
 21 23  1  0
 12  8  2  0
 23 18  1  0
  1 24  1  0
  1 25  1  0
  1 26  1  0
  2 27  1  0
  3 28  1  0
  3 29  1  0
  4 30  1  0
  7 31  1  0
  7 32  1  0
  9 33  1  0
 10 34  1  0
 13 35  1  0
 13 36  1  0
 15 37  1  0
 15 38  1  0
 15 39  1  0
 19 40  1  0
M  END
>  <Energy>  (936) 
783.33955890024856

>  <compound_id>  (936) 
42524

>  <target_id>  (936) 
1

>  <reference_id>  (936) 
49

>  <inspiration_ids>  (936) 
[71, 49]

>  <energy_score>  (936) 
698.3010487487317

>  <distance_score>  (936) 
15.24212493122448

>  <path>  (936) 
/opt/xchem-fragalysis-2/maxwin/BulkDock/SCRATCH/511022/C42524-P49/C42524-P49.minimised.mol

>  <scratch_subdir>  (936) 
/opt/xchem-fragalysis-2/maxwin/BulkDock/SCRATCH/511022/C42524-P49

>  <fragmenstein_runtime>  (936) 
20.346566200256348

>  <fragmenstein_outcome>  (936) 
too moved

>  <fragmenstein_mode>  (936) 
expansion

>  <fragmenstein_error>  (936) 


$$$$
C53913-P71
     RDKit          3D

 40 41  0  0  0  0  0  0  0  0999 V2000
    2.8391  -10.4805   21.3180 C   0  0  0  0  0  0  0  0  0  0  0  0
    3.3836  -11.8129   21.9974 C   0  0  0  0  0  0  0  0  0  0  0  0
    3.7838  -12.6713   20.6853 C   0  0  0  0  0  0  0  0  0  0  0  0
    4.6986  -11.9507   19.7665 N   0  0  0  0  0  0  0  0  0  0  0  0
    6.0546  -11.4764   19.9536 C   0  0  0  0  0  0  0  0  0  0  0  0
    6.8122  -11.6152   20.8730 O   0  0  0  0  0  0  0  0  0  0  0  0
    6.5353  -10.6551   18.7320 C   0  0  0  0  0  0  0  0  0  0  0  0
    6.8278   -9.2154   19.0456 C   0  0  0  0  0  0  0  0  0  0  0  0
    7.6037   -8.6621   20.0953 C   0  0  0  0  0  0  0  0  0  0  0  0
    7.6208   -7.3250   20.0673 N   0  0  0  0  0  0  0  0  0  0  0  0
    6.8589   -6.9771   18.9669 O   0  0  0  0  0  0  0  0  0  0  0  0
    6.4113   -8.0990   18.3549 C   0  0  0  0  0  0  0  0  0  0  0  0
    2.6493  -12.5984   23.6292 C   0  0  0  0  0  0  0  0  0  0  0  0
    1.2565  -13.9304   23.8765 N   0  0  0  0  0  0  0  0  0  0  0  0
    1.3585  -13.2216   25.5656 C   0  0  0  0  0  0  0  0  0  0  0  0
   -0.3420  -14.0063   23.2278 C   0  0  0  0  0  0  0  0  0  0  0  0
   -0.9259  -13.1664   22.5542 O   0  0  0  0  0  0  0  0  0  0  0  0
   -1.2788  -15.1484   23.5550 C   0  0  0  0  0  0  0  0  0  0  0  0
   -1.4837  -16.4463   23.0898 C   0  0  0  0  0  0  0  0  0  0  0  0
   -2.5370  -17.1855   23.6647 N   0  0  0  0  0  0  0  0  0  0  0  0
   -3.2307  -16.4062   24.4571 C   0  0  0  0  0  0  0  0  0  0  0  0
   -4.5368  -16.9814   25.4461 Cl  0  0  0  0  0  0  0  0  0  0  0  0
   -2.7611  -14.7660   24.4953 S   0  0  0  0  0  0  0  0  0  0  0  0
    3.1803   -9.5862   21.8506 H   0  0  0  0  0  0  0  0  0  0  0  0
    1.7562  -10.5137   21.1626 H   0  0  0  0  0  0  0  0  0  0  0  0
    3.2323  -10.3009   20.3133 H   0  0  0  0  0  0  0  0  0  0  0  0
    4.2913  -11.3359   22.3461 H   0  0  0  0  0  0  0  0  0  0  0  0
    4.2243  -13.6506   20.8350 H   0  0  0  0  0  0  0  0  0  0  0  0
    2.8930  -12.8381   20.0680 H   0  0  0  0  0  0  0  0  0  0  0  0
    4.3919  -11.7154   18.8304 H   0  0  0  0  0  0  0  0  0  0  0  0
    7.4508  -11.1351   18.3638 H   0  0  0  0  0  0  0  0  0  0  0  0
    5.8110  -10.7097   17.9119 H   0  0  0  0  0  0  0  0  0  0  0  0
    8.1334   -9.1809   20.8850 H   0  0  0  0  0  0  0  0  0  0  0  0
    5.8100   -7.9385   17.4712 H   0  0  0  0  0  0  0  0  0  0  0  0
    2.1202  -11.7822   24.0051 H   0  0  0  0  0  0  0  0  0  0  0  0
    3.4132  -13.1523   24.1295 H   0  0  0  0  0  0  0  0  0  0  0  0
    2.0961  -13.7129   26.1912 H   0  0  0  0  0  0  0  0  0  0  0  0
    0.5026  -13.4361   26.1664 H   0  0  0  0  0  0  0  0  0  0  0  0
    1.3763  -12.1405   25.6488 H   0  0  0  0  0  0  0  0  0  0  0  0
   -0.8482  -16.9366   22.3606 H   0  0  0  0  0  0  0  0  0  0  0  0
  1  2  1  0
  2  3  1  0
  3  4  1  0
  4  5  1  0
  5  6  2  0
  5  7  1  0
  7  8  1  0
  8  9  1  0
  9 10  2  0
 10 11  1  0
 11 12  1  0
  2 13  1  0
 13 14  1  0
 14 15  1  0
 14 16  1  0
 16 17  2  0
 16 18  1  0
 18 19  2  0
 19 20  1  0
 20 21  2  0
 21 22  1  0
 21 23  1  0
 12  8  2  0
 23 18  1  0
  1 24  1  0
  1 25  1  0
  1 26  1  0
  2 27  1  0
  3 28  1  0
  3 29  1  0
  4 30  1  0
  7 31  1  0
  7 32  1  0
  9 33  1  0
 12 34  1  0
 13 35  1  0
 13 36  1  0
 15 37  1  0
 15 38  1  0
 15 39  1  0
 19 40  1  0
M  END
>  <Energy>  (937) 
277.13878460682059

>  <compound_id>  (937) 
53913

>  <target_id>  (937) 
1

>  <reference_id>  (937) 
71

>  <inspiration_ids>  (937) 
[71, 49]

>  <energy_score>  (937) 
200.85009417334743

>  <distance_score>  (937) 
14.501068248879388

>  <path>  (937) 
/opt/xchem-fragalysis-2/maxwin/BulkDock/SCRATCH/511022/C53913-P71/C53913-P71.minimised.mol

>  <scratch_subdir>  (937) 
/opt/xchem-fragalysis-2/maxwin/BulkDock/SCRATCH/511022/C53913-P71

>  <fragmenstein_runtime>  (937) 
17.142085790634155

>  <fragmenstein_outcome>  (937) 
too moved

>  <fragmenstein_mode>  (937) 
expansion

>  <fragmenstein_error>  (937) 


$$$$
C53913-P49
     RDKit          3D

 40 41  0  0  0  0  0  0  0  0999 V2000
    2.5167  -10.6108   18.7403 C   0  0  0  0  0  0  0  0  0  0  0  0
    1.3069  -10.2530   19.6360 C   0  0  0  0  0  0  0  0  0  0  0  0
    0.9190   -8.7642   19.3822 C   0  0  0  0  0  0  0  0  0  0  0  0
    1.9884   -7.9375   18.8162 N   0  0  0  0  0  0  0  0  0  0  0  0
    3.0658   -7.2118   19.4540 C   0  0  0  0  0  0  0  0  0  0  0  0
    3.3113   -7.0378   20.6138 O   0  0  0  0  0  0  0  0  0  0  0  0
    3.9961   -6.5559   18.3972 C   0  0  0  0  0  0  0  0  0  0  0  0
    5.4604   -6.8622   18.5501 C   0  0  0  0  0  0  0  0  0  0  0  0
    6.2102   -7.1961   19.7047 C   0  0  0  0  0  0  0  0  0  0  0  0
    7.4949   -7.4367   19.4349 N   0  0  0  0  0  0  0  0  0  0  0  0
    7.6292   -7.2063   18.0764 O   0  0  0  0  0  0  0  0  0  0  0  0
    6.4219   -6.8613   17.5615 C   0  0  0  0  0  0  0  0  0  0  0  0
    0.0536  -11.2932   19.3434 C   0  0  0  0  0  0  0  0  0  0  0  0
   -0.7408  -12.1562   20.4159 N   0  0  0  0  0  0  0  0  0  0  0  0
    0.5411  -12.9104   20.4436 C   0  0  0  0  0  0  0  0  0  0  0  0
   -1.8667  -13.0832   20.2529 C   0  0  0  0  0  0  0  0  0  0  0  0
   -2.4060  -13.4850   19.2535 O   0  0  0  0  0  0  0  0  0  0  0  0
   -2.5065  -13.5588   21.5472 C   0  0  0  0  0  0  0  0  0  0  0  0
   -3.0597  -12.8640   22.6190 C   0  0  0  0  0  0  0  0  0  0  0  0
   -3.7582  -13.5930   23.5939 N   0  0  0  0  0  0  0  0  0  0  0  0
   -3.7678  -14.8558   23.2492 C   0  0  0  0  0  0  0  0  0  0  0  0
   -4.5551  -16.0668   24.2183 Cl  0  0  0  0  0  0  0  0  0  0  0  0
   -2.9530  -15.2477   21.7964 S   0  0  0  0  0  0  0  0  0  0  0  0
    3.4117  -10.0459   19.0084 H   0  0  0  0  0  0  0  0  0  0  0  0
    2.7493  -11.6762   18.8161 H   0  0  0  0  0  0  0  0  0  0  0  0
    2.2886  -10.4158   17.6861 H   0  0  0  0  0  0  0  0  0  0  0  0
    1.6058  -10.3508   20.6828 H   0  0  0  0  0  0  0  0  0  0  0  0
    0.0901   -8.6924   18.6713 H   0  0  0  0  0  0  0  0  0  0  0  0
    0.5987   -8.3063   20.3238 H   0  0  0  0  0  0  0  0  0  0  0  0
    2.0481   -7.8050   17.8135 H   0  0  0  0  0  0  0  0  0  0  0  0
    3.6893   -6.8381   17.3838 H   0  0  0  0  0  0  0  0  0  0  0  0
    3.8488   -5.4717   18.4782 H   0  0  0  0  0  0  0  0  0  0  0  0
    5.8721   -7.2925   20.7280 H   0  0  0  0  0  0  0  0  0  0  0  0
    6.4134   -6.6604   16.5005 H   0  0  0  0  0  0  0  0  0  0  0  0
    0.2161  -11.8692   18.4158 H   0  0  0  0  0  0  0  0  0  0  0  0
   -0.7708  -10.6350   19.0304 H   0  0  0  0  0  0  0  0  0  0  0  0
    0.3704  -13.7471   21.1330 H   0  0  0  0  0  0  0  0  0  0  0  0
    1.3740  -12.3743   20.9037 H   0  0  0  0  0  0  0  0  0  0  0  0
    0.7971  -13.4292   19.5076 H   0  0  0  0  0  0  0  0  0  0  0  0
   -3.0239  -11.7865   22.7178 H   0  0  0  0  0  0  0  0  0  0  0  0
  1  2  1  0
  2  3  1  0
  3  4  1  0
  4  5  1  0
  5  6  2  0
  5  7  1  0
  7  8  1  0
  8  9  1  0
  9 10  2  0
 10 11  1  0
 11 12  1  0
  2 13  1  0
 13 14  1  0
 14 15  1  0
 14 16  1  0
 16 17  2  0
 16 18  1  0
 18 19  2  0
 19 20  1  0
 20 21  2  0
 21 22  1  0
 21 23  1  0
 12  8  2  0
 23 18  1  0
  1 24  1  0
  1 25  1  0
  1 26  1  0
  2 27  1  0
  3 28  1  0
  3 29  1  0
  4 30  1  0
  7 31  1  0
  7 32  1  0
  9 33  1  0
 12 34  1  0
 13 35  1  0
 13 36  1  0
 15 37  1  0
 15 38  1  0
 15 39  1  0
 19 40  1  0
M  END
>  <Energy>  (938) 
95.322418585822675

>  <compound_id>  (938) 
53913

>  <target_id>  (938) 
1

>  <reference_id>  (938) 
49

>  <inspiration_ids>  (938) 
[71, 49]

>  <energy_score>  (938) 
19.033728152347265

>  <distance_score>  (938) 
14.943596267874353

>  <path>  (938) 
/opt/xchem-fragalysis-2/maxwin/BulkDock/SCRATCH/511022/C53913-P49/C53913-P49.minimised.mol

>  <scratch_subdir>  (938) 
/opt/xchem-fragalysis-2/maxwin/BulkDock/SCRATCH/511022/C53913-P49

>  <fragmenstein_runtime>  (938) 
37.263723850250244

>  <fragmenstein_outcome>  (938) 
too moved

>  <fragmenstein_mode>  (938) 
expansion

>  <fragmenstein_error>  (938) 


$$$$
C48507-P56
     RDKit          3D

 48 50  0  0  0  0  0  0  0  0999 V2000
    1.1382   -3.8897   37.0636 C   0  0  0  0  0  0  0  0  0  0  0  0
    0.4424   -4.4835   35.8848 N   0  0  0  0  0  0  0  0  0  0  0  0
   -0.8006   -3.9756   36.6445 C   0  0  0  0  0  0  0  0  0  0  0  0
   -1.2466   -2.5101   36.3748 C   0  0  0  0  0  0  0  0  0  0  0  0
   -2.3059   -2.0531   37.2660 N   0  0  0  0  0  0  0  0  0  0  0  0
   -2.8197   -0.7295   37.5238 C   0  0  0  0  0  0  0  0  0  0  0  0
   -2.4534    0.3416   37.1301 O   0  0  0  0  0  0  0  0  0  0  0  0
   -4.0887   -0.7983   38.4038 C   0  0  0  0  0  0  0  0  0  0  0  0
   -5.3892   -0.6900   37.6487 C   0  0  0  0  0  0  0  0  0  0  0  0
   -6.6927   -0.6561   38.2250 C   0  0  0  0  0  0  0  0  0  0  0  0
   -7.6685   -0.6177   37.3133 N   0  0  0  0  0  0  0  0  0  0  0  0
   -6.9971   -0.4922   36.1578 N   0  0  0  0  0  0  0  0  0  0  0  0
   -5.6421   -0.6375   36.2874 C   0  0  0  0  0  0  0  0  0  0  0  0
   -4.7547   -0.6669   35.0845 C   0  0  0  0  0  0  0  0  0  0  0  0
   -5.5329   -0.9452   33.8001 C   0  0  0  0  0  0  0  0  0  0  0  0
   -6.7694   -0.0574   33.7331 C   0  0  0  0  0  0  0  0  0  0  0  0
   -7.7068   -0.3474   34.9038 C   0  0  0  0  0  0  0  0  0  0  0  0
    0.2616   -5.8452   35.4996 C   0  0  0  0  0  0  0  0  0  0  0  0
    0.5454   -6.8642   36.0723 O   0  0  0  0  0  0  0  0  0  0  0  0
   -0.2725   -6.0389   34.1267 C   0  0  0  0  0  0  0  0  0  0  0  0
    0.0946   -5.2033   33.0729 C   0  0  0  0  0  0  0  0  0  0  0  0
   -0.2094   -5.5848   31.7675 C   0  0  0  0  0  0  0  0  0  0  0  0
   -0.8849   -6.7798   31.5658 C   0  0  0  0  0  0  0  0  0  0  0  0
   -1.3182   -7.5825   32.5611 N   0  0  0  0  0  0  0  0  0  0  0  0
   -0.9716   -7.2057   33.8204 C   0  0  0  0  0  0  0  0  0  0  0  0
    2.1972   -4.0510   36.8173 H   0  0  0  0  0  0  0  0  0  0  0  0
    1.0217   -4.4629   37.9946 H   0  0  0  0  0  0  0  0  0  0  0  0
    1.0829   -2.8046   37.1879 H   0  0  0  0  0  0  0  0  0  0  0  0
   -0.8786   -4.2688   37.7078 H   0  0  0  0  0  0  0  0  0  0  0  0
   -1.6247   -4.5779   36.2344 H   0  0  0  0  0  0  0  0  0  0  0  0
   -1.6315   -2.4284   35.3520 H   0  0  0  0  0  0  0  0  0  0  0  0
   -0.4401   -1.7764   36.4463 H   0  0  0  0  0  0  0  0  0  0  0  0
   -2.8140   -2.7212   37.8338 H   0  0  0  0  0  0  0  0  0  0  0  0
   -4.0223    0.0279   39.1233 H   0  0  0  0  0  0  0  0  0  0  0  0
   -4.0935   -1.7180   39.0000 H   0  0  0  0  0  0  0  0  0  0  0  0
   -6.9587   -0.6901   39.2746 H   0  0  0  0  0  0  0  0  0  0  0  0
   -4.2415    0.2981   34.9979 H   0  0  0  0  0  0  0  0  0  0  0  0
   -3.9934   -1.4442   35.1886 H   0  0  0  0  0  0  0  0  0  0  0  0
   -5.8325   -2.0001   33.7608 H   0  0  0  0  0  0  0  0  0  0  0  0
   -4.8835   -0.7606   32.9388 H   0  0  0  0  0  0  0  0  0  0  0  0
   -6.4504    0.9905   33.7727 H   0  0  0  0  0  0  0  0  0  0  0  0
   -7.2920   -0.2037   32.7830 H   0  0  0  0  0  0  0  0  0  0  0  0
   -8.2410   -1.2907   34.7443 H   0  0  0  0  0  0  0  0  0  0  0  0
   -8.4318    0.4633   35.0282 H   0  0  0  0  0  0  0  0  0  0  0  0
    0.6853   -4.3104   33.2543 H   0  0  0  0  0  0  0  0  0  0  0  0
    0.1206   -4.9886   30.9241 H   0  0  0  0  0  0  0  0  0  0  0  0
   -1.0851   -7.1346   30.5597 H   0  0  0  0  0  0  0  0  0  0  0  0
   -1.2533   -7.9114   34.5991 H   0  0  0  0  0  0  0  0  0  0  0  0
  1  2  1  0
  2  3  1  0
  3  4  1  0
  4  5  1  0
  5  6  1  0
  6  7  2  0
  6  8  1  0
  8  9  1  0
  9 10  1  0
 10 11  2  0
 11 12  1  0
 12 13  1  0
 13 14  1  0
 14 15  1  0
 15 16  1  0
 16 17  1  0
  2 18  1  0
 18 19  2  0
 18 20  1  0
 20 21  2  0
 21 22  1  0
 22 23  2  0
 23 24  1  0
 24 25  2  0
 13  9  2  0
 25 20  1  0
 17 12  1  0
  1 26  1  0
  1 27  1  0
  1 28  1  0
  3 29  1  0
  3 30  1  0
  4 31  1  0
  4 32  1  0
  5 33  1  0
  8 34  1  0
  8 35  1  0
 10 36  1  0
 14 37  1  0
 14 38  1  0
 15 39  1  0
 15 40  1  0
 16 41  1  0
 16 42  1  0
 17 43  1  0
 17 44  1  0
 21 45  1  0
 22 46  1  0
 23 47  1  0
 25 48  1  0
M  END
>  <Energy>  (939) 
132.91440903846038

>  <compound_id>  (939) 
48507

>  <target_id>  (939) 
1

>  <reference_id>  (939) 
56

>  <inspiration_ids>  (939) 
[56, 7]

>  <energy_score>  (939) 
43.61049858692914

>  <distance_score>  (939) 
3.67696866311194

>  <path>  (939) 
/opt/xchem-fragalysis-2/maxwin/BulkDock/SCRATCH/511022/C48507-P56/C48507-P56.minimised.mol

>  <scratch_subdir>  (939) 
/opt/xchem-fragalysis-2/maxwin/BulkDock/SCRATCH/511022/C48507-P56

>  <fragmenstein_runtime>  (939) 
10.268446922302246

>  <fragmenstein_outcome>  (939) 
too moved

>  <fragmenstein_mode>  (939) 
expansion

>  <fragmenstein_error>  (939) 


$$$$
C48507-P7
     RDKit          3D

 48 50  0  0  0  0  0  0  0  0999 V2000
    1.1042   -1.9398   35.0544 C   0  0  0  0  0  0  0  0  0  0  0  0
    0.3856   -3.1518   34.5679 N   0  0  0  0  0  0  0  0  0  0  0  0
   -0.7379   -2.5648   35.4426 C   0  0  0  0  0  0  0  0  0  0  0  0
   -1.7219   -1.5508   34.8045 C   0  0  0  0  0  0  0  0  0  0  0  0
   -2.4998   -0.8022   35.7869 N   0  0  0  0  0  0  0  0  0  0  0  0
   -2.9467   -1.1596   37.1122 C   0  0  0  0  0  0  0  0  0  0  0  0
   -2.7255   -2.1331   37.7755 O   0  0  0  0  0  0  0  0  0  0  0  0
   -3.8479   -0.0454   37.7030 C   0  0  0  0  0  0  0  0  0  0  0  0
   -5.2818   -0.2315   37.3234 C   0  0  0  0  0  0  0  0  0  0  0  0
   -6.3062   -0.9050   38.0450 C   0  0  0  0  0  0  0  0  0  0  0  0
   -7.4384   -1.0383   37.3413 N   0  0  0  0  0  0  0  0  0  0  0  0
   -7.1526   -0.3966   36.2013 N   0  0  0  0  0  0  0  0  0  0  0  0
   -5.9230    0.1909   36.1796 C   0  0  0  0  0  0  0  0  0  0  0  0
   -5.5333    0.9695   34.9785 C   0  0  0  0  0  0  0  0  0  0  0  0
   -5.8462    0.1072   33.7629 C   0  0  0  0  0  0  0  0  0  0  0  0
   -7.3338   -0.2609   33.7098 C   0  0  0  0  0  0  0  0  0  0  0  0
   -8.0457   -0.4087   35.0698 C   0  0  0  0  0  0  0  0  0  0  0  0
    0.5754   -4.5304   34.8739 C   0  0  0  0  0  0  0  0  0  0  0  0
    1.3031   -5.0615   35.6699 O   0  0  0  0  0  0  0  0  0  0  0  0
   -0.1797   -5.4543   33.9947 C   0  0  0  0  0  0  0  0  0  0  0  0
   -0.1352   -5.3308   32.6071 C   0  0  0  0  0  0  0  0  0  0  0  0
   -0.6617   -6.3550   31.8231 C   0  0  0  0  0  0  0  0  0  0  0  0
   -1.2461   -7.4429   32.4583 C   0  0  0  0  0  0  0  0  0  0  0  0
   -1.3461   -7.5785   33.7988 N   0  0  0  0  0  0  0  0  0  0  0  0
   -0.7771   -6.5892   34.5341 C   0  0  0  0  0  0  0  0  0  0  0  0
    2.0609   -1.9953   34.5135 H   0  0  0  0  0  0  0  0  0  0  0  0
    0.7087   -0.9628   34.7585 H   0  0  0  0  0  0  0  0  0  0  0  0
    1.4320   -2.0069   36.1030 H   0  0  0  0  0  0  0  0  0  0  0  0
   -1.3860   -3.4305   35.6452 H   0  0  0  0  0  0  0  0  0  0  0  0
   -0.4414   -2.2945   36.4712 H   0  0  0  0  0  0  0  0  0  0  0  0
   -1.2255   -0.8076   34.1754 H   0  0  0  0  0  0  0  0  0  0  0  0
   -2.4358   -2.0738   34.1604 H   0  0  0  0  0  0  0  0  0  0  0  0
   -2.9503    0.0581   35.5082 H   0  0  0  0  0  0  0  0  0  0  0  0
   -3.7385   -0.0702   38.7942 H   0  0  0  0  0  0  0  0  0  0  0  0
   -3.4835    0.9376   37.3829 H   0  0  0  0  0  0  0  0  0  0  0  0
   -6.2448   -1.3520   39.0311 H   0  0  0  0  0  0  0  0  0  0  0  0
   -6.1042    1.9053   34.9404 H   0  0  0  0  0  0  0  0  0  0  0  0
   -4.4776    1.2459   34.9922 H   0  0  0  0  0  0  0  0  0  0  0  0
   -5.2540   -0.8172   33.8044 H   0  0  0  0  0  0  0  0  0  0  0  0
   -5.5522    0.6217   32.8450 H   0  0  0  0  0  0  0  0  0  0  0  0
   -7.8621    0.5052   33.1329 H   0  0  0  0  0  0  0  0  0  0  0  0
   -7.4395   -1.1883   33.1375 H   0  0  0  0  0  0  0  0  0  0  0  0
   -8.6152   -1.3441   35.0991 H   0  0  0  0  0  0  0  0  0  0  0  0
   -8.7364    0.4269   35.2307 H   0  0  0  0  0  0  0  0  0  0  0  0
    0.3818   -4.4968   32.1433 H   0  0  0  0  0  0  0  0  0  0  0  0
   -0.5600   -6.3361   30.7440 H   0  0  0  0  0  0  0  0  0  0  0  0
   -1.6468   -8.2722   31.8873 H   0  0  0  0  0  0  0  0  0  0  0  0
   -0.8056   -6.7486   35.6061 H   0  0  0  0  0  0  0  0  0  0  0  0
  1  2  1  0
  2  3  1  0
  3  4  1  0
  4  5  1  0
  5  6  1  0
  6  7  2  0
  6  8  1  0
  8  9  1  0
  9 10  1  0
 10 11  2  0
 11 12  1  0
 12 13  1  0
 13 14  1  0
 14 15  1  0
 15 16  1  0
 16 17  1  0
  2 18  1  0
 18 19  2  0
 18 20  1  0
 20 21  2  0
 21 22  1  0
 22 23  2  0
 23 24  1  0
 24 25  2  0
 13  9  2  0
 25 20  1  0
 17 12  1  0
  1 26  1  0
  1 27  1  0
  1 28  1  0
  3 29  1  0
  3 30  1  0
  4 31  1  0
  4 32  1  0
  5 33  1  0
  8 34  1  0
  8 35  1  0
 10 36  1  0
 14 37  1  0
 14 38  1  0
 15 39  1  0
 15 40  1  0
 16 41  1  0
 16 42  1  0
 17 43  1  0
 17 44  1  0
 21 45  1  0
 22 46  1  0
 23 47  1  0
 25 48  1  0
M  END
>  <Energy>  (940) 
135.61367332239115

>  <compound_id>  (940) 
48507

>  <target_id>  (940) 
1

>  <reference_id>  (940) 
7

>  <inspiration_ids>  (940) 
[56, 7]

>  <energy_score>  (940) 
46.30976287086321

>  <distance_score>  (940) 
4.004357071788005

>  <path>  (940) 
/opt/xchem-fragalysis-2/maxwin/BulkDock/SCRATCH/511022/C48507-P7/C48507-P7.minimised.mol

>  <scratch_subdir>  (940) 
/opt/xchem-fragalysis-2/maxwin/BulkDock/SCRATCH/511022/C48507-P7

>  <fragmenstein_runtime>  (940) 
8.867184400558472

>  <fragmenstein_outcome>  (940) 
too moved

>  <fragmenstein_mode>  (940) 
expansion

>  <fragmenstein_error>  (940) 


$$$$
C76672-P56
     RDKit          3D

 19 19  0  0  0  0  0  0  0  0999 V2000
   -9.7299   -7.4754   32.8291 O   0  0  0  0  0  0  0  0  0  0  0  0
   -9.0759   -6.8482   33.6612 C   0  0  0  0  0  0  0  0  0  0  0  0
  -10.6518   -6.2398   34.6481 C   0  0  0  0  0  0  0  0  0  0  0  0
  -11.8281   -4.7736   35.3041 Cl  0  0  0  0  0  0  0  0  0  0  0  0
   -7.1258   -6.9722   33.3369 C   0  0  0  0  0  0  0  0  0  0  0  0
   -5.4570   -8.2399   33.5140 C   0  0  0  0  0  0  0  0  0  0  0  0
   -4.6506   -8.4883   34.7887 C   0  0  0  0  0  0  0  0  0  0  0  0
   -3.2978   -8.8490   34.8670 C   0  0  0  0  0  0  0  0  0  0  0  0
   -2.6173   -9.0841   33.7114 C   0  0  0  0  0  0  0  0  0  0  0  0
   -3.3724   -9.0842   32.5603 C   0  0  0  0  0  0  0  0  0  0  0  0
   -4.7004   -8.7091   32.4090 N   0  0  0  0  0  0  0  0  0  0  0  0
  -11.2204   -6.4351   33.7756 H   0  0  0  0  0  0  0  0  0  0  0  0
  -11.3643   -6.9298   35.0819 H   0  0  0  0  0  0  0  0  0  0  0  0
   -6.9704   -6.1702   34.1072 H   0  0  0  0  0  0  0  0  0  0  0  0
   -7.0469   -6.7209   32.2793 H   0  0  0  0  0  0  0  0  0  0  0  0
   -5.0857   -8.3881   35.7779 H   0  0  0  0  0  0  0  0  0  0  0  0
   -2.8132   -8.9584   35.8314 H   0  0  0  0  0  0  0  0  0  0  0  0
   -1.5798   -9.3888   33.7174 H   0  0  0  0  0  0  0  0  0  0  0  0
   -2.8802   -9.4479   31.6759 H   0  0  0  0  0  0  0  0  0  0  0  0
  1  2  2  0
  2  3  1  0
  3  4  1  0
  2  5  1  0
  5  6  1  0
  6  7  2  0
  7  8  1  0
  8  9  2  0
  9 10  1  0
 10 11  2  0
 11  6  1  0
  3 12  1  0
  3 13  1  0
  5 14  1  0
  5 15  1  0
  7 16  1  0
  8 17  1  0
  9 18  1  0
 10 19  1  0
M  END
>  <Energy>  (941) 
443.02254572597064

>  <compound_id>  (941) 
76672

>  <target_id>  (941) 
1

>  <reference_id>  (941) 
56

>  <inspiration_ids>  (941) 
[56, 7]

>  <energy_score>  (941) 
406.8064946181147

>  <distance_score>  (941) 
4.451624029461645

>  <path>  (941) 
/opt/xchem-fragalysis-2/maxwin/BulkDock/SCRATCH/511022/C76672-P56/C76672-P56.minimised.mol

>  <scratch_subdir>  (941) 
/opt/xchem-fragalysis-2/maxwin/BulkDock/SCRATCH/511022/C76672-P56

>  <fragmenstein_runtime>  (941) 
2.0381674766540527

>  <fragmenstein_outcome>  (941) 
too moved

>  <fragmenstein_mode>  (941) 
expansion

>  <fragmenstein_error>  (941) 


$$$$
C76672-P7
     RDKit          3D

 19 19  0  0  0  0  0  0  0  0999 V2000
   -8.1992   -2.0025   36.9886 O   0  0  0  0  0  0  0  0  0  0  0  0
   -8.6197   -1.8465   35.8397 C   0  0  0  0  0  0  0  0  0  0  0  0
  -10.1702   -1.9039   35.6446 C   0  0  0  0  0  0  0  0  0  0  0  0
  -11.0685   -2.8299   36.9089 Cl  0  0  0  0  0  0  0  0  0  0  0  0
   -7.6309   -1.3701   34.6495 C   0  0  0  0  0  0  0  0  0  0  0  0
   -6.1051   -1.8499   34.3445 C   0  0  0  0  0  0  0  0  0  0  0  0
   -5.0366   -1.6279   35.2166 C   0  0  0  0  0  0  0  0  0  0  0  0
   -3.7018   -1.8196   34.8013 C   0  0  0  0  0  0  0  0  0  0  0  0
   -3.4296   -2.1926   33.4961 C   0  0  0  0  0  0  0  0  0  0  0  0
   -4.5152   -2.4581   32.6947 C   0  0  0  0  0  0  0  0  0  0  0  0
   -5.8123   -2.2864   33.0756 N   0  0  0  0  0  0  0  0  0  0  0  0
  -10.5523   -0.8826   35.6941 H   0  0  0  0  0  0  0  0  0  0  0  0
  -10.4137   -2.3661   34.6963 H   0  0  0  0  0  0  0  0  0  0  0  0
   -7.5727   -0.2776   34.7433 H   0  0  0  0  0  0  0  0  0  0  0  0
   -8.1721   -1.5596   33.7229 H   0  0  0  0  0  0  0  0  0  0  0  0
   -5.2278   -1.2550   36.2205 H   0  0  0  0  0  0  0  0  0  0  0  0
   -2.8865   -1.6415   35.4970 H   0  0  0  0  0  0  0  0  0  0  0  0
   -2.4134   -2.3237   33.1460 H   0  0  0  0  0  0  0  0  0  0  0  0
   -4.3846   -2.7643   31.6637 H   0  0  0  0  0  0  0  0  0  0  0  0
  1  2  2  0
  2  3  1  0
  3  4  1  0
  2  5  1  0
  5  6  1  0
  6  7  2  0
  7  8  1  0
  8  9  2  0
  9 10  1  0
 10 11  2  0
 11  6  1  0
  3 12  1  0
  3 13  1  0
  5 14  1  0
  5 15  1  0
  7 16  1  0
  8 17  1  0
  9 18  1  0
 10 19  1  0
M  END
>  <Energy>  (942) 
56.741899737502244

>  <compound_id>  (942) 
76672

>  <target_id>  (942) 
1

>  <reference_id>  (942) 
7

>  <inspiration_ids>  (942) 
[56, 7]

>  <energy_score>  (942) 
14.568556588720242

>  <distance_score>  (942) 
6.045693331536021

>  <path>  (942) 
/opt/xchem-fragalysis-2/maxwin/BulkDock/SCRATCH/511022/C76672-P7/C76672-P7.minimised.mol

>  <scratch_subdir>  (942) 
/opt/xchem-fragalysis-2/maxwin/BulkDock/SCRATCH/511022/C76672-P7

>  <fragmenstein_runtime>  (942) 
1.4811592102050781

>  <fragmenstein_outcome>  (942) 
too moved

>  <fragmenstein_mode>  (942) 
expansion

>  <fragmenstein_error>  (942) 


$$$$
C76676-P56
     RDKit          3D

 27 27  0  0  0  0  0  0  0  0999 V2000
    1.2596   -3.5301   37.9400 C   0  0  0  0  0  0  0  0  0  0  0  0
    0.1334   -2.8100   37.3500 C   0  0  0  0  0  0  0  0  0  0  0  0
   -0.8344   -2.2722   36.8763 C   0  0  0  0  0  0  0  0  0  0  0  0
   -2.0965   -1.6414   36.3455 C   0  0  0  0  0  0  0  0  0  0  0  0
   -3.2037   -1.5398   37.4493 C   0  0  0  0  0  0  0  0  0  0  0  0
   -4.6543   -0.6638   37.4731 C   0  0  0  0  0  0  0  0  0  0  0  0
   -5.9767   -0.7129   36.5242 C   0  0  0  0  0  0  0  0  0  0  0  0
   -5.7675   -0.6685   35.3047 O   0  0  0  0  0  0  0  0  0  0  0  0
   -7.4610   -0.8103   36.9458 C   0  0  0  0  0  0  0  0  0  0  0  0
   -8.4349   -0.8234   35.9252 C   0  0  0  0  0  0  0  0  0  0  0  0
   -9.7851   -1.0981   36.1883 C   0  0  0  0  0  0  0  0  0  0  0  0
  -10.1591   -1.3493   37.4886 C   0  0  0  0  0  0  0  0  0  0  0  0
   -9.2739   -1.3066   38.5047 N   0  0  0  0  0  0  0  0  0  0  0  0
   -7.9595   -1.0351   38.2175 C   0  0  0  0  0  0  0  0  0  0  0  0
    1.9319   -2.8438   38.4634 H   0  0  0  0  0  0  0  0  0  0  0  0
    1.8340   -4.0426   37.1632 H   0  0  0  0  0  0  0  0  0  0  0  0
    0.9091   -4.2769   38.6585 H   0  0  0  0  0  0  0  0  0  0  0  0
   -1.8678   -0.6328   35.9844 H   0  0  0  0  0  0  0  0  0  0  0  0
   -2.4803   -2.2179   35.4991 H   0  0  0  0  0  0  0  0  0  0  0  0
   -3.4498   -2.5357   37.8181 H   0  0  0  0  0  0  0  0  0  0  0  0
   -2.6824   -1.0912   38.3115 H   0  0  0  0  0  0  0  0  0  0  0  0
   -4.3393    0.3879   37.4208 H   0  0  0  0  0  0  0  0  0  0  0  0
   -5.0337   -0.8094   38.4926 H   0  0  0  0  0  0  0  0  0  0  0  0
   -8.1268   -0.6724   34.8899 H   0  0  0  0  0  0  0  0  0  0  0  0
  -10.5100   -1.1443   35.3854 H   0  0  0  0  0  0  0  0  0  0  0  0
  -11.1823   -1.5910   37.7596 H   0  0  0  0  0  0  0  0  0  0  0  0
   -7.3065   -1.0614   39.0860 H   0  0  0  0  0  0  0  0  0  0  0  0
  1  2  1  0
  2  3  3  0
  3  4  1  0
  4  5  1  0
  5  6  1  0
  6  7  1  0
  7  8  2  0
  7  9  1  0
  9 10  2  0
 10 11  1  0
 11 12  2  0
 12 13  1  0
 13 14  2  0
 14  9  1  0
  1 15  1  0
  1 16  1  0
  1 17  1  0
  4 18  1  0
  4 19  1  0
  5 20  1  0
  5 21  1  0
  6 22  1  0
  6 23  1  0
 10 24  1  0
 11 25  1  0
 12 26  1  0
 14 27  1  0
M  END
>  <Energy>  (943) 
75.739813191092836

>  <compound_id>  (943) 
76676

>  <target_id>  (943) 
1

>  <reference_id>  (943) 
56

>  <inspiration_ids>  (943) 
[56, 7]

>  <energy_score>  (943) 
27.201960811210604

>  <distance_score>  (943) 
4.019458350249766

>  <path>  (943) 
/opt/xchem-fragalysis-2/maxwin/BulkDock/SCRATCH/511022/C76676-P56/C76676-P56.minimised.mol

>  <scratch_subdir>  (943) 
/opt/xchem-fragalysis-2/maxwin/BulkDock/SCRATCH/511022/C76676-P56

>  <fragmenstein_runtime>  (943) 
4.12008810043335

>  <fragmenstein_outcome>  (943) 
too moved

>  <fragmenstein_mode>  (943) 
expansion

>  <fragmenstein_error>  (943) 


$$$$
C76676-P7
     RDKit          3D

 27 27  0  0  0  0  0  0  0  0999 V2000
    1.6220   -2.6489   37.8933 C   0  0  0  0  0  0  0  0  0  0  0  0
    0.4830   -2.1941   37.0944 C   0  0  0  0  0  0  0  0  0  0  0  0
   -0.5329   -1.9327   36.5010 C   0  0  0  0  0  0  0  0  0  0  0  0
   -1.8514   -1.7343   35.8087 C   0  0  0  0  0  0  0  0  0  0  0  0
   -3.0481   -1.3297   36.7608 C   0  0  0  0  0  0  0  0  0  0  0  0
   -4.5932   -1.0342   36.1608 C   0  0  0  0  0  0  0  0  0  0  0  0
   -5.8534   -0.5128   37.1526 C   0  0  0  0  0  0  0  0  0  0  0  0
   -5.5728    0.1619   38.1460 O   0  0  0  0  0  0  0  0  0  0  0  0
   -7.3360   -0.8344   36.9253 C   0  0  0  0  0  0  0  0  0  0  0  0
   -7.8688   -1.2569   35.7185 C   0  0  0  0  0  0  0  0  0  0  0  0
   -9.2217   -1.6334   35.6484 C   0  0  0  0  0  0  0  0  0  0  0  0
  -10.0373   -1.5543   36.7613 C   0  0  0  0  0  0  0  0  0  0  0  0
   -9.5713   -1.1176   37.9373 N   0  0  0  0  0  0  0  0  0  0  0  0
   -8.2494   -0.7597   37.9899 C   0  0  0  0  0  0  0  0  0  0  0  0
    2.4911   -2.0053   37.7268 H   0  0  0  0  0  0  0  0  0  0  0  0
    1.9047   -3.6717   37.6269 H   0  0  0  0  0  0  0  0  0  0  0  0
    1.3857   -2.6256   38.9613 H   0  0  0  0  0  0  0  0  0  0  0  0
   -1.7409   -0.9528   35.0486 H   0  0  0  0  0  0  0  0  0  0  0  0
   -2.1181   -2.6552   35.2877 H   0  0  0  0  0  0  0  0  0  0  0  0
   -3.1652   -2.0905   37.5412 H   0  0  0  0  0  0  0  0  0  0  0  0
   -2.7633   -0.4114   37.2915 H   0  0  0  0  0  0  0  0  0  0  0  0
   -4.9182   -1.9405   35.6471 H   0  0  0  0  0  0  0  0  0  0  0  0
   -4.4848   -0.2455   35.4063 H   0  0  0  0  0  0  0  0  0  0  0  0
   -7.2505   -1.3274   34.8273 H   0  0  0  0  0  0  0  0  0  0  0  0
   -9.6286   -2.0053   34.7178 H   0  0  0  0  0  0  0  0  0  0  0  0
  -11.0843   -1.8382   36.7334 H   0  0  0  0  0  0  0  0  0  0  0  0
   -7.9184   -0.4248   38.9730 H   0  0  0  0  0  0  0  0  0  0  0  0
  1  2  1  0
  2  3  3  0
  3  4  1  0
  4  5  1  0
  5  6  1  0
  6  7  1  0
  7  8  2  0
  7  9  1  0
  9 10  2  0
 10 11  1  0
 11 12  2  0
 12 13  1  0
 13 14  2  0
 14  9  1  0
  1 15  1  0
  1 16  1  0
  1 17  1  0
  4 18  1  0
  4 19  1  0
  5 20  1  0
  5 21  1  0
  6 22  1  0
  6 23  1  0
 10 24  1  0
 11 25  1  0
 12 26  1  0
 14 27  1  0
M  END
>  <Energy>  (944) 
62.02871553805786

>  <compound_id>  (944) 
76676

>  <target_id>  (944) 
1

>  <reference_id>  (944) 
7

>  <inspiration_ids>  (944) 
[56, 7]

>  <energy_score>  (944) 
13.490863158174655

>  <distance_score>  (944) 
4.039991164115494

>  <path>  (944) 
/opt/xchem-fragalysis-2/maxwin/BulkDock/SCRATCH/511022/C76676-P7/C76676-P7.minimised.mol

>  <scratch_subdir>  (944) 
/opt/xchem-fragalysis-2/maxwin/BulkDock/SCRATCH/511022/C76676-P7

>  <fragmenstein_runtime>  (944) 
3.71885085105896

>  <fragmenstein_outcome>  (944) 
too moved

>  <fragmenstein_mode>  (944) 
expansion

>  <fragmenstein_error>  (944) 


$$$$
C76708-P56
     RDKit          3D

 22 22  0  0  0  0  0  0  0  0999 V2000
  -10.9095   -6.1620   34.7204 C   0  0  0  0  0  0  0  0  0  0  0  0
   -9.1998   -6.6470   33.9620 C   0  0  0  0  0  0  0  0  0  0  0  0
   -8.2610   -5.8913   34.9416 C   0  0  0  0  0  0  0  0  0  0  0  0
   -7.0677   -5.7313   35.0028 O   0  0  0  0  0  0  0  0  0  0  0  0
   -8.1545   -6.6944   32.6297 C   0  0  0  0  0  0  0  0  0  0  0  0
   -6.6681   -6.5055   31.4857 C   0  0  0  0  0  0  0  0  0  0  0  0
   -6.4051   -6.4955   29.6577 C   0  0  0  0  0  0  0  0  0  0  0  0
   -5.6068   -8.0348   29.3224 C   0  0  0  0  0  0  0  0  0  0  0  0
   -4.8522   -8.5951   30.9213 C   0  0  0  0  0  0  0  0  0  0  0  0
   -4.8518   -8.4276   32.2066 C   0  0  0  0  0  0  0  0  0  0  0  0
   -5.7721   -7.3654   32.3140 N   0  0  0  0  0  0  0  0  0  0  0  0
  -10.6935   -5.5698   35.5913 H   0  0  0  0  0  0  0  0  0  0  0  0
  -11.7116   -5.4831   34.4650 H   0  0  0  0  0  0  0  0  0  0  0  0
  -11.5452   -6.9925   34.9793 H   0  0  0  0  0  0  0  0  0  0  0  0
   -9.9695   -6.9094   33.2345 H   0  0  0  0  0  0  0  0  0  0  0  0
   -8.8295   -5.2874   35.5944 H   0  0  0  0  0  0  0  0  0  0  0  0
   -7.3595   -6.7808   33.3119 H   0  0  0  0  0  0  0  0  0  0  0  0
   -8.5541   -7.6156   32.6626 H   0  0  0  0  0  0  0  0  0  0  0  0
   -6.0530   -5.6343   29.0842 H   0  0  0  0  0  0  0  0  0  0  0  0
   -5.1108   -8.0853   28.3677 H   0  0  0  0  0  0  0  0  0  0  0  0
   -3.7433   -8.4705   30.9458 H   0  0  0  0  0  0  0  0  0  0  0  0
   -4.3084   -8.8677   33.0230 H   0  0  0  0  0  0  0  0  0  0  0  0
  1  2  1  0
  2  3  1  0
  3  4  2  0
  2  5  1  0
  5  6  1  0
  6  7  2  0
  7  8  1  0
  8  9  2  0
  9 10  1  0
 10 11  2  0
 11  6  1  0
  1 12  1  0
  1 13  1  0
  1 14  1  0
  2 15  1  0
  3 16  1  0
  5 17  1  0
  5 18  1  0
  7 19  1  0
  8 20  1  0
  9 21  1  0
 10 22  1  0
M  END
>  <Energy>  (945) 
606.60351504100549

>  <compound_id>  (945) 
76708

>  <target_id>  (945) 
1

>  <reference_id>  (945) 
56

>  <inspiration_ids>  (945) 
[56, 7]

>  <energy_score>  (945) 
582.4332197785182

>  <distance_score>  (945) 
5.6849759159923385

>  <path>  (945) 
/opt/xchem-fragalysis-2/maxwin/BulkDock/SCRATCH/511022/C76708-P56/C76708-P56.minimised.mol

>  <scratch_subdir>  (945) 
/opt/xchem-fragalysis-2/maxwin/BulkDock/SCRATCH/511022/C76708-P56

>  <fragmenstein_runtime>  (945) 
3.107722759246826

>  <fragmenstein_outcome>  (945) 
too moved

>  <fragmenstein_mode>  (945) 
expansion

>  <fragmenstein_error>  (945) 


$$$$
C76708-P7
     RDKit          3D

 22 22  0  0  0  0  0  0  0  0999 V2000
   -9.3811   -7.3418   33.3764 C   0  0  0  0  0  0  0  0  0  0  0  0
   -7.9799   -6.8562   33.6879 C   0  0  0  0  0  0  0  0  0  0  0  0
   -7.7014   -6.0622   34.9015 C   0  0  0  0  0  0  0  0  0  0  0  0
   -8.5605   -5.7265   35.6848 O   0  0  0  0  0  0  0  0  0  0  0  0
   -6.7102   -7.3411   32.9797 C   0  0  0  0  0  0  0  0  0  0  0  0
   -5.1831   -8.5832   33.4004 C   0  0  0  0  0  0  0  0  0  0  0  0
   -4.5607   -8.7984   34.6976 C   0  0  0  0  0  0  0  0  0  0  0  0
   -3.1794   -8.9574   34.8254 C   0  0  0  0  0  0  0  0  0  0  0  0
   -2.3867   -8.9969   33.7120 C   0  0  0  0  0  0  0  0  0  0  0  0
   -3.0213   -9.0358   32.5021 C   0  0  0  0  0  0  0  0  0  0  0  0
   -4.3696   -8.8726   32.3077 N   0  0  0  0  0  0  0  0  0  0  0  0
   -9.6645   -7.1869   32.3652 H   0  0  0  0  0  0  0  0  0  0  0  0
  -10.1390   -6.8672   33.9851 H   0  0  0  0  0  0  0  0  0  0  0  0
   -9.5997   -8.3790   33.3206 H   0  0  0  0  0  0  0  0  0  0  0  0
   -8.0732   -6.1741   32.9636 H   0  0  0  0  0  0  0  0  0  0  0  0
   -6.7613   -5.5503   34.9228 H   0  0  0  0  0  0  0  0  0  0  0  0
   -7.2828   -7.3888   32.1099 H   0  0  0  0  0  0  0  0  0  0  0  0
   -6.3098   -6.8381   32.0394 H   0  0  0  0  0  0  0  0  0  0  0  0
   -5.0695   -8.7683   35.6600 H   0  0  0  0  0  0  0  0  0  0  0  0
   -2.7434   -8.9947   35.8101 H   0  0  0  0  0  0  0  0  0  0  0  0
   -1.3196   -9.0298   33.7553 H   0  0  0  0  0  0  0  0  0  0  0  0
   -2.4035   -9.2064   31.6424 H   0  0  0  0  0  0  0  0  0  0  0  0
  1  2  1  0
  2  3  1  0
  3  4  2  0
  2  5  1  0
  5  6  1  0
  6  7  2  0
  7  8  1  0
  8  9  2  0
  9 10  1  0
 10 11  2  0
 11  6  1  0
  1 12  1  0
  1 13  1  0
  1 14  1  0
  2 15  1  0
  3 16  1  0
  5 17  1  0
  5 18  1  0
  7 19  1  0
  8 20  1  0
  9 21  1  0
 10 22  1  0
M  END
>  <Energy>  (946) 
206.72803091600932

>  <compound_id>  (946) 
76708

>  <target_id>  (946) 
1

>  <reference_id>  (946) 
7

>  <inspiration_ids>  (946) 
[56, 7]

>  <energy_score>  (946) 
182.55773565351836

>  <distance_score>  (946) 
5.302572425138174

>  <path>  (946) 
/opt/xchem-fragalysis-2/maxwin/BulkDock/SCRATCH/511022/C76708-P7/C76708-P7.minimised.mol

>  <scratch_subdir>  (946) 
/opt/xchem-fragalysis-2/maxwin/BulkDock/SCRATCH/511022/C76708-P7

>  <fragmenstein_runtime>  (946) 
3.1302130222320557

>  <fragmenstein_outcome>  (946) 
too moved

>  <fragmenstein_mode>  (946) 
expansion

>  <fragmenstein_error>  (946) 


$$$$
C49543-P56
     RDKit          3D

 48 50  0  0  0  0  0  0  0  0999 V2000
   -0.9663   -1.0460   32.6108 C   0  0  0  0  0  0  0  0  0  0  0  0
   -1.7861   -1.9908   33.3382 N   0  0  0  0  0  0  0  0  0  0  0  0
   -3.2639   -1.7615   33.3639 C   0  0  0  0  0  0  0  0  0  0  0  0
   -3.8927   -1.2534   34.7030 C   0  0  0  0  0  0  0  0  0  0  0  0
   -5.3559   -0.9728   34.6630 N   0  0  0  0  0  0  0  0  0  0  0  0
   -6.3870   -0.7258   35.8407 C   0  0  0  0  0  0  0  0  0  0  0  0
   -6.2396   -0.7866   37.0055 O   0  0  0  0  0  0  0  0  0  0  0  0
   -7.7621   -0.3427   35.2130 C   0  0  0  0  0  0  0  0  0  0  0  0
   -9.0257   -0.6885   36.0188 C   0  0  0  0  0  0  0  0  0  0  0  0
   -9.4375   -1.9695   36.0911 N   0  0  0  0  0  0  0  0  0  0  0  0
  -10.6074   -1.9387   36.7686 N   0  0  0  0  0  0  0  0  0  0  0  0
  -10.9806   -0.6829   37.1167 C   0  0  0  0  0  0  0  0  0  0  0  0
  -10.0038    0.1631   36.6324 C   0  0  0  0  0  0  0  0  0  0  0  0
  -10.0890    1.6394   36.8187 C   0  0  0  0  0  0  0  0  0  0  0  0
  -11.5036    2.0722   37.2520 C   0  0  0  0  0  0  0  0  0  0  0  0
  -12.0849    1.1527   38.3432 C   0  0  0  0  0  0  0  0  0  0  0  0
  -12.2035   -0.3075   37.8676 C   0  0  0  0  0  0  0  0  0  0  0  0
   -1.1314   -3.0650   33.9742 C   0  0  0  0  0  0  0  0  0  0  0  0
   -0.7406   -2.9430   35.1345 O   0  0  0  0  0  0  0  0  0  0  0  0
   -0.8246   -4.3531   33.2268 C   0  0  0  0  0  0  0  0  0  0  0  0
   -0.6651   -4.4622   31.8477 C   0  0  0  0  0  0  0  0  0  0  0  0
   -0.4684   -5.7241   31.2610 C   0  0  0  0  0  0  0  0  0  0  0  0
   -0.4881   -6.8564   32.0614 C   0  0  0  0  0  0  0  0  0  0  0  0
   -0.6545   -6.8102   33.3958 N   0  0  0  0  0  0  0  0  0  0  0  0
   -0.7647   -5.5615   33.9450 C   0  0  0  0  0  0  0  0  0  0  0  0
   -1.2652   -1.0510   31.5588 H   0  0  0  0  0  0  0  0  0  0  0  0
    0.0931   -1.3086   32.6873 H   0  0  0  0  0  0  0  0  0  0  0  0
   -1.1200   -0.0487   33.0324 H   0  0  0  0  0  0  0  0  0  0  0  0
   -3.4908   -1.0270   32.5809 H   0  0  0  0  0  0  0  0  0  0  0  0
   -3.7653   -2.6765   33.0511 H   0  0  0  0  0  0  0  0  0  0  0  0
   -3.4111   -0.3150   34.9988 H   0  0  0  0  0  0  0  0  0  0  0  0
   -3.7188   -1.9652   35.5131 H   0  0  0  0  0  0  0  0  0  0  0  0
   -5.7945   -0.7549   33.7760 H   0  0  0  0  0  0  0  0  0  0  0  0
   -7.8447   -0.8509   34.2455 H   0  0  0  0  0  0  0  0  0  0  0  0
   -7.7400    0.7365   35.0240 H   0  0  0  0  0  0  0  0  0  0  0  0
  -11.0810   -2.8189   36.9580 H   0  0  0  0  0  0  0  0  0  0  0  0
   -9.3671    1.9370   37.5888 H   0  0  0  0  0  0  0  0  0  0  0  0
   -9.8143    2.1573   35.8932 H   0  0  0  0  0  0  0  0  0  0  0  0
  -12.1723    2.0559   36.3815 H   0  0  0  0  0  0  0  0  0  0  0  0
  -11.4731    3.1066   37.6124 H   0  0  0  0  0  0  0  0  0  0  0  0
  -13.0707    1.5165   38.6543 H   0  0  0  0  0  0  0  0  0  0  0  0
  -11.4345    1.1972   39.2265 H   0  0  0  0  0  0  0  0  0  0  0  0
  -12.3572   -0.9681   38.7276 H   0  0  0  0  0  0  0  0  0  0  0  0
  -13.0766   -0.4036   37.2132 H   0  0  0  0  0  0  0  0  0  0  0  0
   -0.6729   -3.5772   31.2204 H   0  0  0  0  0  0  0  0  0  0  0  0
   -0.2939   -5.8200   30.1941 H   0  0  0  0  0  0  0  0  0  0  0  0
   -0.3352   -7.8437   31.6392 H   0  0  0  0  0  0  0  0  0  0  0  0
   -0.8708   -5.5533   35.0289 H   0  0  0  0  0  0  0  0  0  0  0  0
  1  2  1  0
  2  3  1  0
  3  4  1  0
  4  5  1  0
  5  6  1  0
  6  7  2  0
  6  8  1  0
  8  9  1  0
  9 10  2  0
 10 11  1  0
 11 12  1  0
 12 13  2  0
 13 14  1  0
 14 15  1  0
 15 16  1  0
 16 17  1  0
  2 18  1  0
 18 19  2  0
 18 20  1  0
 20 21  2  0
 21 22  1  0
 22 23  2  0
 23 24  1  0
 24 25  2  0
 13  9  1  0
 25 20  1  0
 17 12  1  0
  1 26  1  0
  1 27  1  0
  1 28  1  0
  3 29  1  0
  3 30  1  0
  4 31  1  0
  4 32  1  0
  5 33  1  0
  8 34  1  0
  8 35  1  0
 11 36  1  0
 14 37  1  0
 14 38  1  0
 15 39  1  0
 15 40  1  0
 16 41  1  0
 16 42  1  0
 17 43  1  0
 17 44  1  0
 21 45  1  0
 22 46  1  0
 23 47  1  0
 25 48  1  0
M  END
>  <Energy>  (947) 
98.778599890220619

>  <compound_id>  (947) 
49543

>  <target_id>  (947) 
1

>  <reference_id>  (947) 
56

>  <inspiration_ids>  (947) 
[56, 7]

>  <energy_score>  (947) 
9.460708352299662

>  <distance_score>  (947) 
2.720789382040253

>  <path>  (947) 
/opt/xchem-fragalysis-2/maxwin/BulkDock/SCRATCH/511022/C49543-P56/C49543-P56.minimised.mol

>  <scratch_subdir>  (947) 
/opt/xchem-fragalysis-2/maxwin/BulkDock/SCRATCH/511022/C49543-P56

>  <fragmenstein_runtime>  (947) 
8.775387048721313

>  <fragmenstein_outcome>  (947) 
too moved

>  <fragmenstein_mode>  (947) 
expansion

>  <fragmenstein_error>  (947) 


$$$$
C49543-P7
     RDKit          3D

 48 50  0  0  0  0  0  0  0  0999 V2000
   -1.2541   -0.9161   33.1945 C   0  0  0  0  0  0  0  0  0  0  0  0
   -1.8697   -1.9527   33.9903 N   0  0  0  0  0  0  0  0  0  0  0  0
   -3.3271   -1.8653   34.3184 C   0  0  0  0  0  0  0  0  0  0  0  0
   -3.9430   -0.5119   34.7734 C   0  0  0  0  0  0  0  0  0  0  0  0
   -5.4254   -0.4732   34.7843 N   0  0  0  0  0  0  0  0  0  0  0  0
   -6.4460   -0.6269   35.9818 C   0  0  0  0  0  0  0  0  0  0  0  0
   -6.2575   -0.8824   37.1119 O   0  0  0  0  0  0  0  0  0  0  0  0
   -7.8576   -0.2876   35.4142 C   0  0  0  0  0  0  0  0  0  0  0  0
   -9.0836   -0.7104   36.2269 C   0  0  0  0  0  0  0  0  0  0  0  0
   -9.3861   -2.0174   36.3650 N   0  0  0  0  0  0  0  0  0  0  0  0
  -10.5744   -2.0397   37.0053 N   0  0  0  0  0  0  0  0  0  0  0  0
  -11.0726   -0.8044   37.2511 C   0  0  0  0  0  0  0  0  0  0  0  0
  -10.1482    0.0924   36.7596 C   0  0  0  0  0  0  0  0  0  0  0  0
  -10.3715    1.5644   36.8391 C   0  0  0  0  0  0  0  0  0  0  0  0
  -11.8490    1.8894   37.1375 C   0  0  0  0  0  0  0  0  0  0  0  0
  -12.4256    0.9999   38.2561 C   0  0  0  0  0  0  0  0  0  0  0  0
  -12.3704   -0.4973   37.8983 C   0  0  0  0  0  0  0  0  0  0  0  0
   -1.0725   -3.0317   34.4423 C   0  0  0  0  0  0  0  0  0  0  0  0
   -0.4889   -2.9696   35.5239 O   0  0  0  0  0  0  0  0  0  0  0  0
   -0.8380   -4.2596   33.5803 C   0  0  0  0  0  0  0  0  0  0  0  0
   -0.6434   -4.2500   32.2021 C   0  0  0  0  0  0  0  0  0  0  0  0
   -0.5083   -5.4633   31.5061 C   0  0  0  0  0  0  0  0  0  0  0  0
   -0.6447   -6.6614   32.1929 C   0  0  0  0  0  0  0  0  0  0  0  0
   -0.8545   -6.7288   33.5214 N   0  0  0  0  0  0  0  0  0  0  0  0
   -0.8776   -5.5316   34.1805 C   0  0  0  0  0  0  0  0  0  0  0  0
   -1.7964   -0.8237   32.2496 H   0  0  0  0  0  0  0  0  0  0  0  0
   -0.2060   -1.1557   32.9922 H   0  0  0  0  0  0  0  0  0  0  0  0
   -1.2962    0.0288   33.7426 H   0  0  0  0  0  0  0  0  0  0  0  0
   -3.5237   -2.5499   35.1420 H   0  0  0  0  0  0  0  0  0  0  0  0
   -3.8606   -2.2154   33.4271 H   0  0  0  0  0  0  0  0  0  0  0  0
   -3.6304    0.2926   34.1013 H   0  0  0  0  0  0  0  0  0  0  0  0
   -3.5958   -0.2703   35.7831 H   0  0  0  0  0  0  0  0  0  0  0  0
   -5.9196   -0.1655   33.9536 H   0  0  0  0  0  0  0  0  0  0  0  0
   -7.8872    0.7981   35.2633 H   0  0  0  0  0  0  0  0  0  0  0  0
   -7.9438   -0.7626   34.4286 H   0  0  0  0  0  0  0  0  0  0  0  0
  -10.9805   -2.9398   37.2388 H   0  0  0  0  0  0  0  0  0  0  0  0
   -9.7404    1.9728   37.6375 H   0  0  0  0  0  0  0  0  0  0  0  0
  -10.0726    2.0477   35.9025 H   0  0  0  0  0  0  0  0  0  0  0  0
  -12.4453    1.7450   36.2270 H   0  0  0  0  0  0  0  0  0  0  0  0
  -11.9401    2.9453   37.4158 H   0  0  0  0  0  0  0  0  0  0  0  0
  -13.4621    1.2867   38.4667 H   0  0  0  0  0  0  0  0  0  0  0  0
  -11.8528    1.1752   39.1762 H   0  0  0  0  0  0  0  0  0  0  0  0
  -12.5154   -1.1015   38.8002 H   0  0  0  0  0  0  0  0  0  0  0  0
  -13.1829   -0.7363   37.2030 H   0  0  0  0  0  0  0  0  0  0  0  0
   -0.5697   -3.3116   31.6629 H   0  0  0  0  0  0  0  0  0  0  0  0
   -0.2909   -5.4715   30.4427 H   0  0  0  0  0  0  0  0  0  0  0  0
   -0.5415   -7.6136   31.6822 H   0  0  0  0  0  0  0  0  0  0  0  0
   -1.0275   -5.6200   35.2518 H   0  0  0  0  0  0  0  0  0  0  0  0
  1  2  1  0
  2  3  1  0
  3  4  1  0
  4  5  1  0
  5  6  1  0
  6  7  2  0
  6  8  1  0
  8  9  1  0
  9 10  2  0
 10 11  1  0
 11 12  1  0
 12 13  2  0
 13 14  1  0
 14 15  1  0
 15 16  1  0
 16 17  1  0
  2 18  1  0
 18 19  2  0
 18 20  1  0
 20 21  2  0
 21 22  1  0
 22 23  2  0
 23 24  1  0
 24 25  2  0
 13  9  1  0
 25 20  1  0
 17 12  1  0
  1 26  1  0
  1 27  1  0
  1 28  1  0
  3 29  1  0
  3 30  1  0
  4 31  1  0
  4 32  1  0
  5 33  1  0
  8 34  1  0
  8 35  1  0
 11 36  1  0
 14 37  1  0
 14 38  1  0
 15 39  1  0
 15 40  1  0
 16 41  1  0
 16 42  1  0
 17 43  1  0
 17 44  1  0
 21 45  1  0
 22 46  1  0
 23 47  1  0
 25 48  1  0
M  END
>  <Energy>  (948) 
100.51146706134284

>  <compound_id>  (948) 
49543

>  <target_id>  (948) 
1

>  <reference_id>  (948) 
7

>  <inspiration_ids>  (948) 
[56, 7]

>  <energy_score>  (948) 
11.193575523421657

>  <distance_score>  (948) 
2.680179935723322

>  <path>  (948) 
/opt/xchem-fragalysis-2/maxwin/BulkDock/SCRATCH/511022/C49543-P7/C49543-P7.minimised.mol

>  <scratch_subdir>  (948) 
/opt/xchem-fragalysis-2/maxwin/BulkDock/SCRATCH/511022/C49543-P7

>  <fragmenstein_runtime>  (948) 
7.708220958709717

>  <fragmenstein_outcome>  (948) 
too moved

>  <fragmenstein_mode>  (948) 
expansion

>  <fragmenstein_error>  (948) 


$$$$
C5298-P56
     RDKit          3D

 41 42  0  0  0  0  0  0  0  0999 V2000
   -7.5543   -6.6368   33.6604 C   0  0  0  0  0  0  0  0  0  0  0  0
   -6.2598   -6.1717   34.4478 N   0  0  0  0  0  0  0  0  0  0  0  0
   -7.5729   -5.2861   35.2659 C   0  0  0  0  0  0  0  0  0  0  0  0
   -7.9105   -3.2212   35.3461 C   0  0  0  0  0  0  0  0  0  0  0  0
   -8.3083   -2.1947   36.3668 N   0  0  0  0  0  0  0  0  0  0  0  0
   -9.5252   -1.4091   36.5020 C   0  0  0  0  0  0  0  0  0  0  0  0
  -10.5489   -1.4410   35.8780 O   0  0  0  0  0  0  0  0  0  0  0  0
   -9.4093   -0.4690   37.7168 C   0  0  0  0  0  0  0  0  0  0  0  0
  -10.7368   -0.1771   38.3489 C   0  0  0  0  0  0  0  0  0  0  0  0
  -11.0950    0.7379   39.3164 C   0  0  0  0  0  0  0  0  0  0  0  0
  -12.4727    0.5379   39.5154 C   0  0  0  0  0  0  0  0  0  0  0  0
  -12.9629   -0.4264   38.7378 N   0  0  0  0  0  0  0  0  0  0  0  0
  -11.8999   -0.8400   38.0328 N   0  0  0  0  0  0  0  0  0  0  0  0
   -5.0195   -7.5891   35.0910 C   0  0  0  0  0  0  0  0  0  0  0  0
   -5.1481   -8.0896   36.2209 O   0  0  0  0  0  0  0  0  0  0  0  0
   -3.5163   -8.2291   34.2980 C   0  0  0  0  0  0  0  0  0  0  0  0
   -2.7221   -7.7317   33.2184 C   0  0  0  0  0  0  0  0  0  0  0  0
   -2.1103   -8.4606   32.2835 N   0  0  0  0  0  0  0  0  0  0  0  0
   -1.8377   -9.6586   32.7286 C   0  0  0  0  0  0  0  0  0  0  0  0
   -1.9012   -9.9153   34.0870 C   0  0  0  0  0  0  0  0  0  0  0  0
   -2.5779   -8.9939   34.9307 C   0  0  0  0  0  0  0  0  0  0  0  0
   -1.5366   -8.1839   35.7667 C   0  0  0  0  0  0  0  0  0  0  0  0
   -1.8394   -6.8530   35.8353 F   0  0  0  0  0  0  0  0  0  0  0  0
   -0.2763   -8.2108   35.2213 F   0  0  0  0  0  0  0  0  0  0  0  0
   -8.5547   -6.7942   34.0493 H   0  0  0  0  0  0  0  0  0  0  0  0
   -7.6677   -6.3870   32.6446 H   0  0  0  0  0  0  0  0  0  0  0  0
   -7.0610   -7.3608   33.0976 H   0  0  0  0  0  0  0  0  0  0  0  0
   -8.1022   -5.9783   35.8581 H   0  0  0  0  0  0  0  0  0  0  0  0
   -6.6821   -4.8610   35.5261 H   0  0  0  0  0  0  0  0  0  0  0  0
   -8.7402   -2.8948   34.7147 H   0  0  0  0  0  0  0  0  0  0  0  0
   -7.0426   -2.7046   34.8463 H   0  0  0  0  0  0  0  0  0  0  0  0
   -7.6062   -1.8367   37.0175 H   0  0  0  0  0  0  0  0  0  0  0  0
   -8.7619   -0.9174   38.4791 H   0  0  0  0  0  0  0  0  0  0  0  0
   -8.9469    0.4624   37.3718 H   0  0  0  0  0  0  0  0  0  0  0  0
  -10.4531    1.4495   39.8161 H   0  0  0  0  0  0  0  0  0  0  0  0
  -13.1384    1.0536   40.1956 H   0  0  0  0  0  0  0  0  0  0  0  0
  -12.0356   -1.5592   37.3238 H   0  0  0  0  0  0  0  0  0  0  0  0
   -2.4954   -6.6769   33.0806 H   0  0  0  0  0  0  0  0  0  0  0  0
   -1.4649  -10.3332   31.9772 H   0  0  0  0  0  0  0  0  0  0  0  0
   -1.3442  -10.7480   34.4879 H   0  0  0  0  0  0  0  0  0  0  0  0
   -1.4353   -8.5416   36.7768 H   0  0  0  0  0  0  0  0  0  0  0  0
  1  2  1  0
  2  3  1  0
  3  4  1  0
  4  5  1  0
  5  6  1  0
  6  7  2  0
  6  8  1  0
  8  9  1  0
  9 10  2  0
 10 11  1  0
 11 12  2  0
 12 13  1  0
  2 14  1  0
 14 15  2  0
 14 16  1  0
 16 17  2  0
 17 18  1  0
 18 19  2  0
 19 20  1  0
 20 21  2  0
 21 22  1  0
 22 23  1  0
 22 24  1  0
 13  9  1  0
 21 16  1  0
  1 25  1  0
  1 26  1  0
  1 27  1  0
  3 28  1  0
  3 29  1  0
  4 30  1  0
  4 31  1  0
  5 32  1  0
  8 33  1  0
  8 34  1  0
 10 35  1  0
 11 36  1  0
 13 37  1  0
 17 38  1  0
 19 39  1  0
 20 40  1  0
 22 41  1  0
M  END
>  <Energy>  (949) 
566.52207397589461

>  <compound_id>  (949) 
5298

>  <target_id>  (949) 
1

>  <reference_id>  (949) 
56

>  <inspiration_ids>  (949) 
[56, 7]

>  <energy_score>  (949) 
496.0648746787147

>  <distance_score>  (949) 
2.4854352750041864

>  <path>  (949) 
/opt/xchem-fragalysis-2/maxwin/BulkDock/SCRATCH/511022/C5298-P56/C5298-P56.minimised.mol

>  <scratch_subdir>  (949) 
/opt/xchem-fragalysis-2/maxwin/BulkDock/SCRATCH/511022/C5298-P56

>  <fragmenstein_runtime>  (949) 
6.7454564571380615

>  <fragmenstein_outcome>  (949) 
too moved

>  <fragmenstein_mode>  (949) 
expansion

>  <fragmenstein_error>  (949) 


$$$$
C5298-P7
     RDKit          3D

 41 42  0  0  0  0  0  0  0  0999 V2000
    0.6461   -0.8102   33.6313 C   0  0  0  0  0  0  0  0  0  0  0  0
   -0.4447   -1.6817   34.2099 N   0  0  0  0  0  0  0  0  0  0  0  0
   -0.5992   -0.4888   35.1431 C   0  0  0  0  0  0  0  0  0  0  0  0
   -1.7262   -0.8017   36.1615 C   0  0  0  0  0  0  0  0  0  0  0  0
   -3.0604   -0.7844   35.6071 N   0  0  0  0  0  0  0  0  0  0  0  0
   -4.3455   -0.6510   36.2436 C   0  0  0  0  0  0  0  0  0  0  0  0
   -4.6332   -0.4414   37.3877 O   0  0  0  0  0  0  0  0  0  0  0  0
   -5.4553   -0.7332   35.1756 C   0  0  0  0  0  0  0  0  0  0  0  0
   -6.8448   -0.9360   35.7162 C   0  0  0  0  0  0  0  0  0  0  0  0
   -8.0277   -1.1657   35.0493 C   0  0  0  0  0  0  0  0  0  0  0  0
   -8.9967   -1.3461   36.0495 C   0  0  0  0  0  0  0  0  0  0  0  0
   -8.4660   -1.2923   37.2706 N   0  0  0  0  0  0  0  0  0  0  0  0
   -7.1840   -0.9334   37.0474 N   0  0  0  0  0  0  0  0  0  0  0  0
   -1.2845   -2.1627   33.1760 C   0  0  0  0  0  0  0  0  0  0  0  0
   -2.2914   -1.7018   32.7090 O   0  0  0  0  0  0  0  0  0  0  0  0
   -0.8158   -3.4737   32.6365 C   0  0  0  0  0  0  0  0  0  0  0  0
   -0.8332   -3.6477   31.2594 C   0  0  0  0  0  0  0  0  0  0  0  0
   -0.4867   -4.8007   30.6365 N   0  0  0  0  0  0  0  0  0  0  0  0
   -0.1299   -5.8391   31.4181 C   0  0  0  0  0  0  0  0  0  0  0  0
   -0.1012   -5.7676   32.7957 C   0  0  0  0  0  0  0  0  0  0  0  0
   -0.4264   -4.5635   33.4270 C   0  0  0  0  0  0  0  0  0  0  0  0
   -0.3439   -4.4960   34.9156 C   0  0  0  0  0  0  0  0  0  0  0  0
    0.8493   -4.0011   35.3483 F   0  0  0  0  0  0  0  0  0  0  0  0
   -0.4419   -5.7221   35.5236 F   0  0  0  0  0  0  0  0  0  0  0  0
    1.1013   -1.4107   32.8289 H   0  0  0  0  0  0  0  0  0  0  0  0
    1.4952   -0.6191   34.3036 H   0  0  0  0  0  0  0  0  0  0  0  0
    0.2802    0.0796   33.0961 H   0  0  0  0  0  0  0  0  0  0  0  0
   -0.9309    0.4252   34.6255 H   0  0  0  0  0  0  0  0  0  0  0  0
    0.2878   -0.3326   35.7762 H   0  0  0  0  0  0  0  0  0  0  0  0
   -1.7096   -0.0633   36.9707 H   0  0  0  0  0  0  0  0  0  0  0  0
   -1.5778   -1.7859   36.6152 H   0  0  0  0  0  0  0  0  0  0  0  0
   -3.1958   -0.8776   34.5988 H   0  0  0  0  0  0  0  0  0  0  0  0
   -5.4293    0.1967   34.5955 H   0  0  0  0  0  0  0  0  0  0  0  0
   -5.2307   -1.5685   34.5004 H   0  0  0  0  0  0  0  0  0  0  0  0
   -8.1513   -1.2172   33.9777 H   0  0  0  0  0  0  0  0  0  0  0  0
  -10.0537   -1.5524   35.9409 H   0  0  0  0  0  0  0  0  0  0  0  0
   -6.5654   -0.7571   37.8401 H   0  0  0  0  0  0  0  0  0  0  0  0
   -1.1353   -2.8436   30.5914 H   0  0  0  0  0  0  0  0  0  0  0  0
    0.1425   -6.7531   30.8988 H   0  0  0  0  0  0  0  0  0  0  0  0
    0.1838   -6.6355   33.3799 H   0  0  0  0  0  0  0  0  0  0  0  0
   -1.1417   -3.8857   35.3415 H   0  0  0  0  0  0  0  0  0  0  0  0
  1  2  1  0
  2  3  1  0
  3  4  1  0
  4  5  1  0
  5  6  1  0
  6  7  2  0
  6  8  1  0
  8  9  1  0
  9 10  2  0
 10 11  1  0
 11 12  2  0
 12 13  1  0
  2 14  1  0
 14 15  2  0
 14 16  1  0
 16 17  2  0
 17 18  1  0
 18 19  2  0
 19 20  1  0
 20 21  2  0
 21 22  1  0
 22 23  1  0
 22 24  1  0
 13  9  1  0
 21 16  1  0
  1 25  1  0
  1 26  1  0
  1 27  1  0
  3 28  1  0
  3 29  1  0
  4 30  1  0
  4 31  1  0
  5 32  1  0
  8 33  1  0
  8 34  1  0
 10 35  1  0
 11 36  1  0
 13 37  1  0
 17 38  1  0
 19 39  1  0
 20 40  1  0
 22 41  1  0
M  END
>  <Energy>  (950) 
100.96546327440066

>  <compound_id>  (950) 
5298

>  <target_id>  (950) 
1

>  <reference_id>  (950) 
7

>  <inspiration_ids>  (950) 
[56, 7]

>  <energy_score>  (950) 
30.508263977218448

>  <distance_score>  (950) 
3.747799433230957

>  <path>  (950) 
/opt/xchem-fragalysis-2/maxwin/BulkDock/SCRATCH/511022/C5298-P7/C5298-P7.minimised.mol

>  <scratch_subdir>  (950) 
/opt/xchem-fragalysis-2/maxwin/BulkDock/SCRATCH/511022/C5298-P7

>  <fragmenstein_runtime>  (950) 
8.739923477172852

>  <fragmenstein_outcome>  (950) 
too moved

>  <fragmenstein_mode>  (950) 
expansion

>  <fragmenstein_error>  (950) 


$$$$
C5299-P56
     RDKit          3D

 45 47  0  0  0  0  0  0  0  0999 V2000
    1.3663   -3.7036   34.9170 C   0  0  0  0  0  0  0  0  0  0  0  0
   -0.1284   -3.7874   34.7473 N   0  0  0  0  0  0  0  0  0  0  0  0
   -0.6186   -4.9865   35.3383 C   0  0  0  0  0  0  0  0  0  0  0  0
   -1.0167   -5.2038   36.4525 O   0  0  0  0  0  0  0  0  0  0  0  0
   -0.7243   -6.1031   34.3377 C   0  0  0  0  0  0  0  0  0  0  0  0
   -0.4947   -5.9388   32.9653 C   0  0  0  0  0  0  0  0  0  0  0  0
   -0.7203   -6.9994   32.0901 C   0  0  0  0  0  0  0  0  0  0  0  0
   -1.1839   -8.1909   32.6172 C   0  0  0  0  0  0  0  0  0  0  0  0
   -1.3908   -8.3988   33.9334 N   0  0  0  0  0  0  0  0  0  0  0  0
   -1.1565   -7.3523   34.7638 C   0  0  0  0  0  0  0  0  0  0  0  0
   -0.0532   -2.3335   35.3058 C   0  0  0  0  0  0  0  0  0  0  0  0
   -1.4065   -1.6229   34.8343 C   0  0  0  0  0  0  0  0  0  0  0  0
   -2.5067   -1.4016   35.7620 N   0  0  0  0  0  0  0  0  0  0  0  0
   -3.9094   -1.1268   35.5231 C   0  0  0  0  0  0  0  0  0  0  0  0
   -4.5369   -1.0905   34.5008 O   0  0  0  0  0  0  0  0  0  0  0  0
   -4.5976   -0.7335   36.8592 C   0  0  0  0  0  0  0  0  0  0  0  0
   -6.1097   -0.6647   36.8252 C   0  0  0  0  0  0  0  0  0  0  0  0
   -7.0279   -0.4729   37.8422 C   0  0  0  0  0  0  0  0  0  0  0  0
   -8.2908   -0.6107   37.2373 C   0  0  0  0  0  0  0  0  0  0  0  0
   -8.1947   -0.8865   35.9359 N   0  0  0  0  0  0  0  0  0  0  0  0
   -6.8705   -0.8093   35.6890 N   0  0  0  0  0  0  0  0  0  0  0  0
    0.0939   -2.2188   36.8173 C   0  0  0  0  0  0  0  0  0  0  0  0
    1.4169   -1.8345   37.4505 C   0  0  0  0  0  0  0  0  0  0  0  0
    0.2767   -0.8658   37.4701 C   0  0  0  0  0  0  0  0  0  0  0  0
    1.8949   -2.9702   34.2918 H   0  0  0  0  0  0  0  0  0  0  0  0
    1.7379   -4.6487   34.4878 H   0  0  0  0  0  0  0  0  0  0  0  0
    1.7176   -3.7967   35.9501 H   0  0  0  0  0  0  0  0  0  0  0  0
   -0.1589   -4.9873   32.5655 H   0  0  0  0  0  0  0  0  0  0  0  0
   -0.5307   -6.8989   31.0272 H   0  0  0  0  0  0  0  0  0  0  0  0
   -1.3935   -9.0455   31.9812 H   0  0  0  0  0  0  0  0  0  0  0  0
   -1.3477   -7.5598   35.8135 H   0  0  0  0  0  0  0  0  0  0  0  0
    0.6755   -1.6933   34.7785 H   0  0  0  0  0  0  0  0  0  0  0  0
   -1.1364   -0.6062   34.5180 H   0  0  0  0  0  0  0  0  0  0  0  0
   -1.8101   -2.1050   33.9361 H   0  0  0  0  0  0  0  0  0  0  0  0
   -2.3402   -1.4286   36.7616 H   0  0  0  0  0  0  0  0  0  0  0  0
   -4.3063   -1.4580   37.6288 H   0  0  0  0  0  0  0  0  0  0  0  0
   -4.2094    0.2499   37.1505 H   0  0  0  0  0  0  0  0  0  0  0  0
   -6.8135   -0.2928   38.8868 H   0  0  0  0  0  0  0  0  0  0  0  0
   -9.2698   -0.5474   37.6955 H   0  0  0  0  0  0  0  0  0  0  0  0
   -6.5295   -0.9283   34.7349 H   0  0  0  0  0  0  0  0  0  0  0  0
   -0.5257   -2.9337   37.3490 H   0  0  0  0  0  0  0  0  0  0  0  0
    1.6881   -2.3336   38.3756 H   0  0  0  0  0  0  0  0  0  0  0  0
    2.2659   -1.5943   36.8206 H   0  0  0  0  0  0  0  0  0  0  0  0
    0.3560    0.0162   36.8445 H   0  0  0  0  0  0  0  0  0  0  0  0
   -0.2123   -0.6886   38.4220 H   0  0  0  0  0  0  0  0  0  0  0  0
  1  2  1  0
  2  3  1  0
  3  4  2  0
  3  5  1  0
  5  6  2  0
  6  7  1  0
  7  8  2  0
  8  9  1  0
  9 10  2  0
  2 11  1  0
 11 12  1  0
 12 13  1  0
 13 14  1  0
 14 15  2  0
 14 16  1  0
 16 17  1  0
 17 18  2  0
 18 19  1  0
 19 20  2  0
 20 21  1  0
 11 22  1  0
 22 23  1  0
 23 24  1  0
 10  5  1  0
 21 17  1  0
 24 22  1  0
  1 25  1  0
  1 26  1  0
  1 27  1  0
  6 28  1  0
  7 29  1  0
  8 30  1  0
 10 31  1  0
 11 32  1  0
 12 33  1  0
 12 34  1  0
 13 35  1  0
 16 36  1  0
 16 37  1  0
 18 38  1  0
 19 39  1  0
 21 40  1  0
 22 41  1  0
 23 42  1  0
 23 43  1  0
 24 44  1  0
 24 45  1  0
M  END
>  <Energy>  (951) 
154.42877313806017

>  <compound_id>  (951) 
5299

>  <target_id>  (951) 
1

>  <reference_id>  (951) 
56

>  <inspiration_ids>  (951) 
[56, 7]

>  <energy_score>  (951) 
47.40986874218615

>  <distance_score>  (951) 
3.6460914959835353

>  <path>  (951) 
/opt/xchem-fragalysis-2/maxwin/BulkDock/SCRATCH/511022/C5299-P56/C5299-P56.minimised.mol

>  <scratch_subdir>  (951) 
/opt/xchem-fragalysis-2/maxwin/BulkDock/SCRATCH/511022/C5299-P56

>  <fragmenstein_runtime>  (951) 
9.146797895431519

>  <fragmenstein_outcome>  (951) 
too moved

>  <fragmenstein_mode>  (951) 
expansion

>  <fragmenstein_error>  (951) 


$$$$
C5299-P7
     RDKit          3D

 45 47  0  0  0  0  0  0  0  0999 V2000
    0.6492   -2.9845   33.4898 C   0  0  0  0  0  0  0  0  0  0  0  0
   -0.5098   -3.5683   34.2496 N   0  0  0  0  0  0  0  0  0  0  0  0
   -0.1841   -4.8763   34.7095 C   0  0  0  0  0  0  0  0  0  0  0  0
    0.3114   -5.2413   35.7440 O   0  0  0  0  0  0  0  0  0  0  0  0
   -0.6134   -5.9896   33.8170 C   0  0  0  0  0  0  0  0  0  0  0  0
   -0.6199   -5.9868   32.4251 C   0  0  0  0  0  0  0  0  0  0  0  0
   -1.0689   -7.1172   31.7419 C   0  0  0  0  0  0  0  0  0  0  0  0
   -1.5556   -8.1867   32.4759 C   0  0  0  0  0  0  0  0  0  0  0  0
   -1.5799   -8.2283   33.8204 N   0  0  0  0  0  0  0  0  0  0  0  0
   -1.0976   -7.1331   34.4545 C   0  0  0  0  0  0  0  0  0  0  0  0
   -0.4438   -2.1965   34.9710 C   0  0  0  0  0  0  0  0  0  0  0  0
   -1.4150   -1.1104   34.3951 C   0  0  0  0  0  0  0  0  0  0  0  0
   -2.8275   -1.4544   34.4704 N   0  0  0  0  0  0  0  0  0  0  0  0
   -4.0031   -0.6169   34.6022 C   0  0  0  0  0  0  0  0  0  0  0  0
   -4.1053    0.5665   34.7621 O   0  0  0  0  0  0  0  0  0  0  0  0
   -5.2903   -1.4498   34.4127 C   0  0  0  0  0  0  0  0  0  0  0  0
   -6.4287   -1.0823   35.3307 C   0  0  0  0  0  0  0  0  0  0  0  0
   -6.4968   -0.5510   36.6038 C   0  0  0  0  0  0  0  0  0  0  0  0
   -7.8569   -0.6202   36.9650 C   0  0  0  0  0  0  0  0  0  0  0  0
   -8.6028   -1.1690   36.0044 N   0  0  0  0  0  0  0  0  0  0  0  0
   -7.7369   -1.3182   34.9853 N   0  0  0  0  0  0  0  0  0  0  0  0
    0.8389   -1.5996   35.5745 C   0  0  0  0  0  0  0  0  0  0  0  0
    1.7122   -2.3628   36.5462 C   0  0  0  0  0  0  0  0  0  0  0  0
    0.8907   -1.2081   37.0356 C   0  0  0  0  0  0  0  0  0  0  0  0
    0.7965   -3.6383   32.6238 H   0  0  0  0  0  0  0  0  0  0  0  0
    1.6140   -3.1120   33.9994 H   0  0  0  0  0  0  0  0  0  0  0  0
    0.5076   -2.0135   32.9977 H   0  0  0  0  0  0  0  0  0  0  0  0
   -0.2580   -5.1498   31.8467 H   0  0  0  0  0  0  0  0  0  0  0  0
   -1.0158   -7.1647   30.6600 H   0  0  0  0  0  0  0  0  0  0  0  0
   -1.9393   -9.0796   31.9952 H   0  0  0  0  0  0  0  0  0  0  0  0
   -1.1394   -7.1959   35.5389 H   0  0  0  0  0  0  0  0  0  0  0  0
   -0.9801   -2.5036   35.8836 H   0  0  0  0  0  0  0  0  0  0  0  0
   -1.2113   -0.8975   33.3417 H   0  0  0  0  0  0  0  0  0  0  0  0
   -1.2909   -0.1658   34.9372 H   0  0  0  0  0  0  0  0  0  0  0  0
   -3.1203   -2.4105   34.2618 H   0  0  0  0  0  0  0  0  0  0  0  0
   -5.0812   -2.5130   34.5540 H   0  0  0  0  0  0  0  0  0  0  0  0
   -5.5980   -1.3177   33.3679 H   0  0  0  0  0  0  0  0  0  0  0  0
   -5.6712   -0.1962   37.2067 H   0  0  0  0  0  0  0  0  0  0  0  0
   -8.3223   -0.3202   37.8957 H   0  0  0  0  0  0  0  0  0  0  0  0
   -8.1013   -1.6446   34.0955 H   0  0  0  0  0  0  0  0  0  0  0  0
    1.3269   -0.9018   34.8987 H   0  0  0  0  0  0  0  0  0  0  0  0
    1.4188   -3.3505   36.8805 H   0  0  0  0  0  0  0  0  0  0  0  0
    2.7864   -2.2306   36.4810 H   0  0  0  0  0  0  0  0  0  0  0  0
    1.4124   -0.2956   37.3036 H   0  0  0  0  0  0  0  0  0  0  0  0
    0.0511   -1.4342   37.6837 H   0  0  0  0  0  0  0  0  0  0  0  0
  1  2  1  0
  2  3  1  0
  3  4  2  0
  3  5  1  0
  5  6  2  0
  6  7  1  0
  7  8  2  0
  8  9  1  0
  9 10  2  0
  2 11  1  0
 11 12  1  0
 12 13  1  0
 13 14  1  0
 14 15  2  0
 14 16  1  0
 16 17  1  0
 17 18  2  0
 18 19  1  0
 19 20  2  0
 20 21  1  0
 11 22  1  0
 22 23  1  0
 23 24  1  0
 10  5  1  0
 21 17  1  0
 24 22  1  0
  1 25  1  0
  1 26  1  0
  1 27  1  0
  6 28  1  0
  7 29  1  0
  8 30  1  0
 10 31  1  0
 11 32  1  0
 12 33  1  0
 12 34  1  0
 13 35  1  0
 16 36  1  0
 16 37  1  0
 18 38  1  0
 19 39  1  0
 21 40  1  0
 22 41  1  0
 23 42  1  0
 23 43  1  0
 24 44  1  0
 24 45  1  0
M  END
>  <Energy>  (952) 
166.17802655094269

>  <compound_id>  (952) 
5299

>  <target_id>  (952) 
1

>  <reference_id>  (952) 
7

>  <inspiration_ids>  (952) 
[56, 7]

>  <energy_score>  (952) 
59.159122155066

>  <distance_score>  (952) 
3.8946444543260483

>  <path>  (952) 
/opt/xchem-fragalysis-2/maxwin/BulkDock/SCRATCH/511022/C5299-P7/C5299-P7.minimised.mol

>  <scratch_subdir>  (952) 
/opt/xchem-fragalysis-2/maxwin/BulkDock/SCRATCH/511022/C5299-P7

>  <fragmenstein_runtime>  (952) 
7.40669584274292

>  <fragmenstein_outcome>  (952) 
too moved

>  <fragmenstein_mode>  (952) 
expansion

>  <fragmenstein_error>  (952) 


$$$$
C25881-P56
     RDKit          3D

 36 37  0  0  0  0  0  0  0  0999 V2000
   -5.2079   -8.3513   36.2531 C   0  0  0  0  0  0  0  0  0  0  0  0
   -5.1299   -7.3252   35.0806 N   0  0  0  0  0  0  0  0  0  0  0  0
   -4.5572   -8.5953   34.1218 C   0  0  0  0  0  0  0  0  0  0  0  0
   -3.0128   -8.8409   34.2401 C   0  0  0  0  0  0  0  0  0  0  0  0
   -2.1258   -7.7164   34.1223 N   0  0  0  0  0  0  0  0  0  0  0  0
   -1.2890   -7.0820   35.0837 C   0  0  0  0  0  0  0  0  0  0  0  0
   -1.1663   -7.2697   36.2573 O   0  0  0  0  0  0  0  0  0  0  0  0
   -0.3994   -6.1133   34.4053 C   0  0  0  0  0  0  0  0  0  0  0  0
    0.5063   -5.2102   35.0177 C   0  0  0  0  0  0  0  0  0  0  0  0
    1.1838   -4.6213   33.9804 C   0  0  0  0  0  0  0  0  0  0  0  0
    0.6913   -5.1870   32.8432 N   0  0  0  0  0  0  0  0  0  0  0  0
   -0.3194   -6.0489   33.0570 N   0  0  0  0  0  0  0  0  0  0  0  0
   -6.8604   -6.1635   34.7567 C   0  0  0  0  0  0  0  0  0  0  0  0
   -8.1536   -4.8727   35.3695 C   0  0  0  0  0  0  0  0  0  0  0  0
   -8.0755   -3.0719   35.3183 C   0  0  0  0  0  0  0  0  0  0  0  0
   -9.1338   -2.0755   35.6210 C   0  0  0  0  0  0  0  0  0  0  0  0
  -10.3891   -2.4942   36.1084 C   0  0  0  0  0  0  0  0  0  0  0  0
  -11.3439   -1.6021   36.3927 F   0  0  0  0  0  0  0  0  0  0  0  0
  -10.6231   -3.8767   36.2422 C   0  0  0  0  0  0  0  0  0  0  0  0
   -9.5856   -5.1561   35.8575 N   0  0  0  0  0  0  0  0  0  0  0  0
   -4.2369   -8.7687   36.5229 H   0  0  0  0  0  0  0  0  0  0  0  0
   -5.8070   -9.2605   36.1432 H   0  0  0  0  0  0  0  0  0  0  0  0
   -5.6281   -7.7193   36.9616 H   0  0  0  0  0  0  0  0  0  0  0  0
   -4.8305   -8.5857   33.0633 H   0  0  0  0  0  0  0  0  0  0  0  0
   -5.0249   -9.5244   34.4093 H   0  0  0  0  0  0  0  0  0  0  0  0
   -2.7775   -9.3515   35.1755 H   0  0  0  0  0  0  0  0  0  0  0  0
   -2.7095   -9.5005   33.4224 H   0  0  0  0  0  0  0  0  0  0  0  0
   -1.9019   -7.3516   33.1969 H   0  0  0  0  0  0  0  0  0  0  0  0
    0.6548   -5.0474   36.0765 H   0  0  0  0  0  0  0  0  0  0  0  0
    1.9834   -3.8955   33.9557 H   0  0  0  0  0  0  0  0  0  0  0  0
    0.9981   -5.0344   31.8888 H   0  0  0  0  0  0  0  0  0  0  0  0
   -7.3318   -6.4831   33.8029 H   0  0  0  0  0  0  0  0  0  0  0  0
   -7.3586   -6.5811   35.6377 H   0  0  0  0  0  0  0  0  0  0  0  0
   -7.1662   -2.5875   34.9035 H   0  0  0  0  0  0  0  0  0  0  0  0
   -8.9281   -1.0177   35.4838 H   0  0  0  0  0  0  0  0  0  0  0  0
  -11.6318   -4.2229   36.4662 H   0  0  0  0  0  0  0  0  0  0  0  0
  1  2  1  0
  2  3  1  0
  3  4  1  0
  4  5  1  0
  5  6  1  0
  6  7  2  0
  6  8  1  0
  8  9  1  0
  9 10  2  0
 10 11  1  0
 11 12  1  0
  2 13  1  0
 13 14  1  0
 14 15  2  0
 15 16  1  0
 16 17  2  0
 17 18  1  0
 17 19  1  0
 19 20  2  0
 12  8  2  0
 20 14  1  0
  1 21  1  0
  1 22  1  0
  1 23  1  0
  3 24  1  0
  3 25  1  0
  4 26  1  0
  4 27  1  0
  5 28  1  0
  9 29  1  0
 10 30  1  0
 11 31  1  0
 13 32  1  0
 13 33  1  0
 15 34  1  0
 16 35  1  0
 19 36  1  0
M  END
>  <Energy>  (953) 
479.54778930453494

>  <compound_id>  (953) 
25881

>  <target_id>  (953) 
1

>  <reference_id>  (953) 
56

>  <inspiration_ids>  (953) 
[56, 7]

>  <energy_score>  (953) 
352.15615188554364

>  <distance_score>  (953) 
3.7767461400566993

>  <path>  (953) 
/opt/xchem-fragalysis-2/maxwin/BulkDock/SCRATCH/511022/C25881-P56/C25881-P56.minimised.mol

>  <scratch_subdir>  (953) 
/opt/xchem-fragalysis-2/maxwin/BulkDock/SCRATCH/511022/C25881-P56

>  <fragmenstein_runtime>  (953) 
7.048985958099365

>  <fragmenstein_outcome>  (953) 
too moved

>  <fragmenstein_mode>  (953) 
expansion

>  <fragmenstein_error>  (953) 


$$$$
C25881-P7
     RDKit          3D

 36 37  0  0  0  0  0  0  0  0999 V2000
   -4.9193   -8.8449   33.5227 C   0  0  0  0  0  0  0  0  0  0  0  0
   -4.9867   -7.9235   32.1029 N   0  0  0  0  0  0  0  0  0  0  0  0
   -3.2452   -8.1827   31.8976 C   0  0  0  0  0  0  0  0  0  0  0  0
   -1.9318   -7.4680   31.4323 C   0  0  0  0  0  0  0  0  0  0  0  0
   -1.2934   -6.5576   32.3555 N   0  0  0  0  0  0  0  0  0  0  0  0
   -0.8180   -6.7563   33.7034 C   0  0  0  0  0  0  0  0  0  0  0  0
   -0.9037   -7.7054   34.4296 O   0  0  0  0  0  0  0  0  0  0  0  0
   -0.0110   -5.5789   34.1837 C   0  0  0  0  0  0  0  0  0  0  0  0
    0.6830   -4.6001   33.4088 C   0  0  0  0  0  0  0  0  0  0  0  0
    1.3157   -3.7807   34.3099 C   0  0  0  0  0  0  0  0  0  0  0  0
    1.0168   -4.2819   35.5351 N   0  0  0  0  0  0  0  0  0  0  0  0
    0.2020   -5.3510   35.5004 N   0  0  0  0  0  0  0  0  0  0  0  0
   -6.0933   -6.2179   31.8111 C   0  0  0  0  0  0  0  0  0  0  0  0
   -5.4387   -4.2792   32.3091 C   0  0  0  0  0  0  0  0  0  0  0  0
   -5.3880   -3.4454   33.4768 C   0  0  0  0  0  0  0  0  0  0  0  0
   -5.4555   -2.0343   33.4840 C   0  0  0  0  0  0  0  0  0  0  0  0
   -5.5656   -1.3819   32.2952 C   0  0  0  0  0  0  0  0  0  0  0  0
   -5.9158   -0.0937   32.2695 F   0  0  0  0  0  0  0  0  0  0  0  0
   -5.3569   -2.1174   31.1603 C   0  0  0  0  0  0  0  0  0  0  0  0
   -5.2128   -3.4813   31.1526 N   0  0  0  0  0  0  0  0  0  0  0  0
   -4.7743   -8.3150   34.4713 H   0  0  0  0  0  0  0  0  0  0  0  0
   -3.9917   -9.3933   33.5682 H   0  0  0  0  0  0  0  0  0  0  0  0
   -5.5819   -9.6806   33.5216 H   0  0  0  0  0  0  0  0  0  0  0  0
   -3.2293   -9.2254   31.5866 H   0  0  0  0  0  0  0  0  0  0  0  0
   -2.8487   -8.3337   32.9126 H   0  0  0  0  0  0  0  0  0  0  0  0
   -1.1875   -8.2731   31.3628 H   0  0  0  0  0  0  0  0  0  0  0  0
   -1.9381   -7.0708   30.4289 H   0  0  0  0  0  0  0  0  0  0  0  0
   -0.9707   -5.6623   32.0217 H   0  0  0  0  0  0  0  0  0  0  0  0
    0.7537   -4.5238   32.3336 H   0  0  0  0  0  0  0  0  0  0  0  0
    1.9592   -2.9216   34.1867 H   0  0  0  0  0  0  0  0  0  0  0  0
    1.3247   -3.9420   36.4422 H   0  0  0  0  0  0  0  0  0  0  0  0
   -6.4564   -6.1089   30.7908 H   0  0  0  0  0  0  0  0  0  0  0  0
   -7.0023   -6.5602   32.3858 H   0  0  0  0  0  0  0  0  0  0  0  0
   -5.5265   -3.8099   34.4764 H   0  0  0  0  0  0  0  0  0  0  0  0
   -5.5495   -1.4900   34.4176 H   0  0  0  0  0  0  0  0  0  0  0  0
   -5.3416   -1.6450   30.1834 H   0  0  0  0  0  0  0  0  0  0  0  0
  1  2  1  0
  2  3  1  0
  3  4  1  0
  4  5  1  0
  5  6  1  0
  6  7  2  0
  6  8  1  0
  8  9  1  0
  9 10  2  0
 10 11  1  0
 11 12  1  0
  2 13  1  0
 13 14  1  0
 14 15  2  0
 15 16  1  0
 16 17  2  0
 17 18  1  0
 17 19  1  0
 19 20  2  0
 12  8  2  0
 20 14  1  0
  1 21  1  0
  1 22  1  0
  1 23  1  0
  3 24  1  0
  3 25  1  0
  4 26  1  0
  4 27  1  0
  5 28  1  0
  9 29  1  0
 10 30  1  0
 11 31  1  0
 13 32  1  0
 13 33  1  0
 15 34  1  0
 16 35  1  0
 19 36  1  0
M  END
>  <Energy>  (954) 
453.05050064860018

>  <compound_id>  (954) 
25881

>  <target_id>  (954) 
1

>  <reference_id>  (954) 
7

>  <inspiration_ids>  (954) 
[56, 7]

>  <energy_score>  (954) 
325.6588632296066

>  <distance_score>  (954) 
5.862897301601543

>  <path>  (954) 
/opt/xchem-fragalysis-2/maxwin/BulkDock/SCRATCH/511022/C25881-P7/C25881-P7.minimised.mol

>  <scratch_subdir>  (954) 
/opt/xchem-fragalysis-2/maxwin/BulkDock/SCRATCH/511022/C25881-P7

>  <fragmenstein_runtime>  (954) 
9.14780330657959

>  <fragmenstein_outcome>  (954) 
too moved

>  <fragmenstein_mode>  (954) 
expansion

>  <fragmenstein_error>  (954) 


$$$$
C25886-P56
     RDKit          3D

 38 41  0  0  0  0  0  0  0  0999 V2000
    2.1417   -3.6490   37.5627 O   0  0  0  0  0  0  0  0  0  0  0  0
    1.2307   -4.0974   36.5669 C   0  0  0  0  0  0  0  0  0  0  0  0
    1.1053   -3.0261   35.4804 C   0  0  0  0  0  0  0  0  0  0  0  0
   -0.0101   -2.0899   35.9659 C   0  0  0  0  0  0  0  0  0  0  0  0
   -1.3224   -2.0783   35.1412 C   0  0  0  0  0  0  0  0  0  0  0  0
   -2.3948   -1.9875   36.1471 N   0  0  0  0  0  0  0  0  0  0  0  0
   -3.6704   -1.4352   36.0634 C   0  0  0  0  0  0  0  0  0  0  0  0
   -4.4375   -1.4184   34.8988 C   0  0  0  0  0  0  0  0  0  0  0  0
   -5.8382   -1.1035   34.9357 C   0  0  0  0  0  0  0  0  0  0  0  0
   -6.4836   -0.7636   36.1341 C   0  0  0  0  0  0  0  0  0  0  0  0
   -7.9709   -0.7108   36.3070 C   0  0  0  0  0  0  0  0  0  0  0  0
   -8.7804    0.2326   37.0172 C   0  0  0  0  0  0  0  0  0  0  0  0
  -10.0735   -0.2459   36.9760 C   0  0  0  0  0  0  0  0  0  0  0  0
  -10.0062   -1.4083   36.2761 N   0  0  0  0  0  0  0  0  0  0  0  0
   -8.7580   -1.7168   35.8725 N   0  0  0  0  0  0  0  0  0  0  0  0
   -5.6226   -0.6851   37.2195 C   0  0  0  0  0  0  0  0  0  0  0  0
   -4.2819   -1.0142   37.2062 N   0  0  0  0  0  0  0  0  0  0  0  0
   -1.8840   -2.2649   37.4859 C   0  0  0  0  0  0  0  0  0  0  0  0
   -0.4397   -2.6628   37.3129 C   0  0  0  0  0  0  0  0  0  0  0  0
   -0.1481   -4.1514   37.2003 C   0  0  0  0  0  0  0  0  0  0  0  0
    2.9191   -4.2503   37.5361 H   0  0  0  0  0  0  0  0  0  0  0  0
    1.5561   -5.0588   36.1628 H   0  0  0  0  0  0  0  0  0  0  0  0
    0.8376   -3.4775   34.5191 H   0  0  0  0  0  0  0  0  0  0  0  0
    2.0431   -2.4756   35.3499 H   0  0  0  0  0  0  0  0  0  0  0  0
    0.3549   -1.0622   36.0827 H   0  0  0  0  0  0  0  0  0  0  0  0
   -1.3365   -1.2177   34.4640 H   0  0  0  0  0  0  0  0  0  0  0  0
   -1.4283   -2.9880   34.5483 H   0  0  0  0  0  0  0  0  0  0  0  0
   -4.0005   -1.7626   33.9665 H   0  0  0  0  0  0  0  0  0  0  0  0
   -6.4216   -1.2146   34.0231 H   0  0  0  0  0  0  0  0  0  0  0  0
   -8.4439    1.1331   37.5124 H   0  0  0  0  0  0  0  0  0  0  0  0
  -11.0012    0.1262   37.3863 H   0  0  0  0  0  0  0  0  0  0  0  0
  -10.7554   -2.0588   36.0550 H   0  0  0  0  0  0  0  0  0  0  0  0
   -5.9916   -0.4377   38.2120 H   0  0  0  0  0  0  0  0  0  0  0  0
   -2.4569   -3.0394   38.0048 H   0  0  0  0  0  0  0  0  0  0  0  0
   -1.9186   -1.3518   38.0947 H   0  0  0  0  0  0  0  0  0  0  0  0
    0.1547   -2.2363   38.1319 H   0  0  0  0  0  0  0  0  0  0  0  0
   -0.8667   -4.6637   36.5506 H   0  0  0  0  0  0  0  0  0  0  0  0
   -0.1480   -4.6313   38.1840 H   0  0  0  0  0  0  0  0  0  0  0  0
  1  2  1  0
  2  3  1  0
  3  4  1  0
  4  5  1  0
  5  6  1  0
  6  7  1  0
  7  8  2  0
  8  9  1  0
  9 10  2  0
 10 11  1  0
 11 12  1  0
 12 13  2  0
 13 14  1  0
 14 15  1  0
 10 16  1  0
 16 17  2  0
  6 18  1  0
 18 19  1  0
 19 20  1  0
 20  2  1  0
 19  4  1  0
 17  7  1  0
 15 11  2  0
  1 21  1  0
  2 22  1  0
  3 23  1  0
  3 24  1  0
  4 25  1  0
  5 26  1  0
  5 27  1  0
  8 28  1  0
  9 29  1  0
 12 30  1  0
 13 31  1  0
 14 32  1  0
 16 33  1  0
 18 34  1  0
 18 35  1  0
 19 36  1  0
 20 37  1  0
 20 38  1  0
M  END
>  <Energy>  (955) 
34.892051876555392

>  <compound_id>  (955) 
25886

>  <target_id>  (955) 
1

>  <reference_id>  (955) 
56

>  <inspiration_ids>  (955) 
[56, 7]

>  <energy_score>  (955) 
-28.868368448290042

>  <distance_score>  (955) 
3.164481948814878

>  <path>  (955) 
/opt/xchem-fragalysis-2/maxwin/BulkDock/SCRATCH/511022/C25886-P56/C25886-P56.minimised.mol

>  <scratch_subdir>  (955) 
/opt/xchem-fragalysis-2/maxwin/BulkDock/SCRATCH/511022/C25886-P56

>  <fragmenstein_runtime>  (955) 
2.6065948009490967

>  <fragmenstein_outcome>  (955) 
too moved

>  <fragmenstein_mode>  (955) 
expansion

>  <fragmenstein_error>  (955) 


$$$$
C25886-P7
     RDKit          3D

 38 41  0  0  0  0  0  0  0  0999 V2000
    2.1871   -2.5097   37.7709 O   0  0  0  0  0  0  0  0  0  0  0  0
    2.3326   -2.6920   36.3643 C   0  0  0  0  0  0  0  0  0  0  0  0
    1.9471   -1.4067   35.6107 C   0  0  0  0  0  0  0  0  0  0  0  0
    0.4146   -1.3665   35.6938 C   0  0  0  0  0  0  0  0  0  0  0  0
   -0.4592   -1.0163   34.4956 C   0  0  0  0  0  0  0  0  0  0  0  0
   -1.6123   -1.9506   34.5111 N   0  0  0  0  0  0  0  0  0  0  0  0
   -2.8979   -1.4929   34.9390 C   0  0  0  0  0  0  0  0  0  0  0  0
   -3.9439   -1.5297   34.0019 C   0  0  0  0  0  0  0  0  0  0  0  0
   -5.3040   -1.2890   34.3635 C   0  0  0  0  0  0  0  0  0  0  0  0
   -5.6681   -0.9835   35.6775 C   0  0  0  0  0  0  0  0  0  0  0  0
   -7.1212   -0.8681   36.1053 C   0  0  0  0  0  0  0  0  0  0  0  0
   -7.7227   -0.1135   37.1671 C   0  0  0  0  0  0  0  0  0  0  0  0
   -9.0734   -0.3993   37.1544 C   0  0  0  0  0  0  0  0  0  0  0  0
   -9.2427   -1.2660   36.1254 N   0  0  0  0  0  0  0  0  0  0  0  0
   -8.0941   -1.5882   35.5028 N   0  0  0  0  0  0  0  0  0  0  0  0
   -4.5615   -0.9109   36.5364 C   0  0  0  0  0  0  0  0  0  0  0  0
   -3.2153   -1.1595   36.2142 N   0  0  0  0  0  0  0  0  0  0  0  0
   -1.1645   -3.1734   35.1827 C   0  0  0  0  0  0  0  0  0  0  0  0
    0.0288   -2.7885   36.0249 C   0  0  0  0  0  0  0  0  0  0  0  0
    1.2694   -3.6513   35.8680 C   0  0  0  0  0  0  0  0  0  0  0  0
    2.0277   -3.3732   38.1918 H   0  0  0  0  0  0  0  0  0  0  0  0
    3.3516   -3.0212   36.1457 H   0  0  0  0  0  0  0  0  0  0  0  0
    2.2752   -1.4607   34.5664 H   0  0  0  0  0  0  0  0  0  0  0  0
    2.3848   -0.5147   36.0699 H   0  0  0  0  0  0  0  0  0  0  0  0
    0.1265   -0.7060   36.5243 H   0  0  0  0  0  0  0  0  0  0  0  0
   -0.7788    0.0317   34.5171 H   0  0  0  0  0  0  0  0  0  0  0  0
    0.0908   -1.1720   33.5604 H   0  0  0  0  0  0  0  0  0  0  0  0
   -3.7156   -1.8178   32.9794 H   0  0  0  0  0  0  0  0  0  0  0  0
   -6.0705   -1.3852   33.5965 H   0  0  0  0  0  0  0  0  0  0  0  0
   -7.2172    0.5516   37.8540 H   0  0  0  0  0  0  0  0  0  0  0  0
   -9.8958   -0.0574   37.7663 H   0  0  0  0  0  0  0  0  0  0  0  0
  -10.1041   -1.6810   35.7846 H   0  0  0  0  0  0  0  0  0  0  0  0
   -4.7012   -0.6889   37.5929 H   0  0  0  0  0  0  0  0  0  0  0  0
   -1.9252   -3.6189   35.8206 H   0  0  0  0  0  0  0  0  0  0  0  0
   -0.8813   -3.9087   34.4212 H   0  0  0  0  0  0  0  0  0  0  0  0
   -0.2302   -2.6943   37.0725 H   0  0  0  0  0  0  0  0  0  0  0  0
    1.4468   -3.9134   34.8181 H   0  0  0  0  0  0  0  0  0  0  0  0
    1.2269   -4.5710   36.4509 H   0  0  0  0  0  0  0  0  0  0  0  0
  1  2  1  0
  2  3  1  0
  3  4  1  0
  4  5  1  0
  5  6  1  0
  6  7  1  0
  7  8  2  0
  8  9  1  0
  9 10  2  0
 10 11  1  0
 11 12  1  0
 12 13  2  0
 13 14  1  0
 14 15  1  0
 10 16  1  0
 16 17  2  0
  6 18  1  0
 18 19  1  0
 19 20  1  0
 20  2  1  0
 19  4  1  0
 17  7  1  0
 15 11  2  0
  1 21  1  0
  2 22  1  0
  3 23  1  0
  3 24  1  0
  4 25  1  0
  5 26  1  0
  5 27  1  0
  8 28  1  0
  9 29  1  0
 12 30  1  0
 13 31  1  0
 14 32  1  0
 16 33  1  0
 18 34  1  0
 18 35  1  0
 19 36  1  0
 20 37  1  0
 20 38  1  0
M  END
>  <Energy>  (956) 
43.207505010950776

>  <compound_id>  (956) 
25886

>  <target_id>  (956) 
1

>  <reference_id>  (956) 
7

>  <inspiration_ids>  (956) 
[56, 7]

>  <energy_score>  (956) 
-20.552915313894896

>  <distance_score>  (956) 
3.36928424230568

>  <path>  (956) 
/opt/xchem-fragalysis-2/maxwin/BulkDock/SCRATCH/511022/C25886-P7/C25886-P7.minimised.mol

>  <scratch_subdir>  (956) 
/opt/xchem-fragalysis-2/maxwin/BulkDock/SCRATCH/511022/C25886-P7

>  <fragmenstein_runtime>  (956) 
3.0393810272216797

>  <fragmenstein_outcome>  (956) 
too moved

>  <fragmenstein_mode>  (956) 
expansion

>  <fragmenstein_error>  (956) 


$$$$
C25887-P56
     RDKit          3D

 46 49  0  0  0  0  0  0  0  0999 V2000
   -9.5015   -0.2710   37.4617 C   0  0  0  0  0  0  0  0  0  0  0  0
   -8.1930    0.0221   37.7869 C   0  0  0  0  0  0  0  0  0  0  0  0
   -7.3631   -0.6766   36.8504 C   0  0  0  0  0  0  0  0  0  0  0  0
   -5.8550   -0.8005   36.7857 C   0  0  0  0  0  0  0  0  0  0  0  0
   -5.1584   -0.9861   35.5846 C   0  0  0  0  0  0  0  0  0  0  0  0
   -3.7927   -1.4139   35.5709 C   0  0  0  0  0  0  0  0  0  0  0  0
   -3.0960   -1.7006   36.7581 C   0  0  0  0  0  0  0  0  0  0  0  0
   -1.8794   -2.4779   36.6757 N   0  0  0  0  0  0  0  0  0  0  0  0
   -1.6250   -3.4050   37.7849 C   0  0  0  0  0  0  0  0  0  0  0  0
   -1.2475   -4.7900   37.2512 C   0  0  0  0  0  0  0  0  0  0  0  0
    0.1318   -4.9322   36.6567 C   0  0  0  0  0  0  0  0  0  0  0  0
    0.4267   -3.9069   35.5875 C   0  0  0  0  0  0  0  0  0  0  0  0
    0.6243   -2.4568   36.0982 C   0  0  0  0  0  0  0  0  0  0  0  0
    1.5073   -1.7402   35.0382 C   0  0  0  0  0  0  0  0  0  0  0  0
    2.9441   -2.1643   35.3353 C   0  0  0  0  0  0  0  0  0  0  0  0
    2.9421   -2.6679   36.7720 C   0  0  0  0  0  0  0  0  0  0  0  0
    1.5637   -2.3302   37.3211 C   0  0  0  0  0  0  0  0  0  0  0  0
   -0.7148   -1.6690   36.2839 C   0  0  0  0  0  0  0  0  0  0  0  0
   -3.7259   -1.4229   37.9263 N   0  0  0  0  0  0  0  0  0  0  0  0
   -5.0460   -0.9684   37.9133 C   0  0  0  0  0  0  0  0  0  0  0  0
   -8.1630   -1.3767   36.0126 N   0  0  0  0  0  0  0  0  0  0  0  0
   -9.4279   -1.0850   36.3781 N   0  0  0  0  0  0  0  0  0  0  0  0
  -10.4446    0.0289   37.8959 H   0  0  0  0  0  0  0  0  0  0  0  0
   -7.8626    0.6473   38.6053 H   0  0  0  0  0  0  0  0  0  0  0  0
   -5.6842   -0.8980   34.6351 H   0  0  0  0  0  0  0  0  0  0  0  0
   -3.3294   -1.6564   34.6171 H   0  0  0  0  0  0  0  0  0  0  0  0
   -0.8642   -3.0167   38.4694 H   0  0  0  0  0  0  0  0  0  0  0  0
   -2.5149   -3.5210   38.4078 H   0  0  0  0  0  0  0  0  0  0  0  0
   -1.9651   -5.1027   36.4899 H   0  0  0  0  0  0  0  0  0  0  0  0
   -1.3186   -5.5050   38.0789 H   0  0  0  0  0  0  0  0  0  0  0  0
    0.2093   -5.9334   36.2135 H   0  0  0  0  0  0  0  0  0  0  0  0
    0.8803   -4.9019   37.4501 H   0  0  0  0  0  0  0  0  0  0  0  0
   -0.3574   -3.9241   34.8188 H   0  0  0  0  0  0  0  0  0  0  0  0
    1.3288   -4.2564   35.0691 H   0  0  0  0  0  0  0  0  0  0  0  0
    1.4299   -0.6509   35.1546 H   0  0  0  0  0  0  0  0  0  0  0  0
    1.2166   -1.9741   34.0081 H   0  0  0  0  0  0  0  0  0  0  0  0
    3.2782   -2.9519   34.6510 H   0  0  0  0  0  0  0  0  0  0  0  0
    3.6274   -1.3175   35.2102 H   0  0  0  0  0  0  0  0  0  0  0  0
    3.7447   -2.2264   37.3699 H   0  0  0  0  0  0  0  0  0  0  0  0
    3.0841   -3.7495   36.7635 H   0  0  0  0  0  0  0  0  0  0  0  0
    1.5729   -1.2949   37.6873 H   0  0  0  0  0  0  0  0  0  0  0  0
    1.3059   -2.9599   38.1740 H   0  0  0  0  0  0  0  0  0  0  0  0
   -0.5707   -0.8531   37.0049 H   0  0  0  0  0  0  0  0  0  0  0  0
   -0.9511   -1.1907   35.3238 H   0  0  0  0  0  0  0  0  0  0  0  0
   -5.4573   -0.8506   38.9140 H   0  0  0  0  0  0  0  0  0  0  0  0
  -10.1877   -1.4995   35.8465 H   0  0  0  0  0  0  0  0  0  0  0  0
  1  2  2  0
  2  3  1  0
  3  4  1  0
  4  5  2  0
  5  6  1  0
  6  7  2  0
  7  8  1  0
  8  9  1  0
  9 10  1  0
 10 11  1  0
 11 12  1  0
 12 13  1  0
 13 14  1  0
 14 15  1  0
 15 16  1  0
 16 17  1  0
 13 18  1  0
  7 19  1  0
 19 20  2  0
  3 21  2  0
 21 22  1  0
 22  1  1  0
 20  4  1  0
 18  8  1  0
 17 13  1  0
  1 23  1  0
  2 24  1  0
  5 25  1  0
  6 26  1  0
  9 27  1  0
  9 28  1  0
 10 29  1  0
 10 30  1  0
 11 31  1  0
 11 32  1  0
 12 33  1  0
 12 34  1  0
 14 35  1  0
 14 36  1  0
 15 37  1  0
 15 38  1  0
 16 39  1  0
 16 40  1  0
 17 41  1  0
 17 42  1  0
 18 43  1  0
 18 44  1  0
 20 45  1  0
 22 46  1  0
M  END
>  <Energy>  (957) 
46.195838213551625

>  <compound_id>  (957) 
25887

>  <target_id>  (957) 
1

>  <reference_id>  (957) 
56

>  <inspiration_ids>  (957) 
[56, 7]

>  <energy_score>  (957) 
-30.127808195935934

>  <distance_score>  (957) 
3.749544472134931

>  <path>  (957) 
/opt/xchem-fragalysis-2/maxwin/BulkDock/SCRATCH/511022/C25887-P56/C25887-P56.minimised.mol

>  <scratch_subdir>  (957) 
/opt/xchem-fragalysis-2/maxwin/BulkDock/SCRATCH/511022/C25887-P56

>  <fragmenstein_runtime>  (957) 
3.5883471965789795

>  <fragmenstein_outcome>  (957) 
too moved

>  <fragmenstein_mode>  (957) 
expansion

>  <fragmenstein_error>  (957) 


$$$$
C25887-P7
     RDKit          3D

 46 49  0  0  0  0  0  0  0  0999 V2000
   -9.0161   -0.4437   37.4119 C   0  0  0  0  0  0  0  0  0  0  0  0
   -7.6696   -0.2289   37.6287 C   0  0  0  0  0  0  0  0  0  0  0  0
   -6.9611   -0.8687   36.5577 C   0  0  0  0  0  0  0  0  0  0  0  0
   -5.4661   -1.0276   36.3154 C   0  0  0  0  0  0  0  0  0  0  0  0
   -4.9450   -1.2917   35.0494 C   0  0  0  0  0  0  0  0  0  0  0  0
   -3.5736   -1.6676   34.8551 C   0  0  0  0  0  0  0  0  0  0  0  0
   -2.6590   -1.8250   35.9119 C   0  0  0  0  0  0  0  0  0  0  0  0
   -1.3610   -2.4315   35.7727 N   0  0  0  0  0  0  0  0  0  0  0  0
   -0.9266   -2.9957   34.4854 C   0  0  0  0  0  0  0  0  0  0  0  0
   -0.4432   -4.4339   34.6370 C   0  0  0  0  0  0  0  0  0  0  0  0
    1.0125   -4.5621   35.0234 C   0  0  0  0  0  0  0  0  0  0  0  0
    1.4446   -3.8865   36.3123 C   0  0  0  0  0  0  0  0  0  0  0  0
    1.1807   -2.3717   36.4894 C   0  0  0  0  0  0  0  0  0  0  0  0
    1.9863   -1.5981   35.4170 C   0  0  0  0  0  0  0  0  0  0  0  0
    3.4449   -1.7214   35.8455 C   0  0  0  0  0  0  0  0  0  0  0  0
    3.4257   -1.8845   37.3631 C   0  0  0  0  0  0  0  0  0  0  0  0
    1.9537   -1.9252   37.7632 C   0  0  0  0  0  0  0  0  0  0  0  0
   -0.3042   -1.8510   36.6429 C   0  0  0  0  0  0  0  0  0  0  0  0
   -3.1310   -1.4658   37.1378 N   0  0  0  0  0  0  0  0  0  0  0  0
   -4.4792   -1.0886   37.3047 C   0  0  0  0  0  0  0  0  0  0  0  0
   -7.8726   -1.4566   35.7467 N   0  0  0  0  0  0  0  0  0  0  0  0
   -9.0815   -1.1557   36.2593 N   0  0  0  0  0  0  0  0  0  0  0  0
   -9.8985   -0.1453   37.9600 H   0  0  0  0  0  0  0  0  0  0  0  0
   -7.2359    0.3101   38.4602 H   0  0  0  0  0  0  0  0  0  0  0  0
   -5.6008   -1.2697   34.1800 H   0  0  0  0  0  0  0  0  0  0  0  0
   -3.2904   -1.8788   33.8313 H   0  0  0  0  0  0  0  0  0  0  0  0
   -0.1690   -2.3575   34.0239 H   0  0  0  0  0  0  0  0  0  0  0  0
   -1.7130   -3.0061   33.7333 H   0  0  0  0  0  0  0  0  0  0  0  0
   -1.0731   -4.9917   35.3349 H   0  0  0  0  0  0  0  0  0  0  0  0
   -0.5601   -4.9346   33.6664 H   0  0  0  0  0  0  0  0  0  0  0  0
    1.6312   -4.1930   34.1961 H   0  0  0  0  0  0  0  0  0  0  0  0
    1.2513   -5.6311   35.1026 H   0  0  0  0  0  0  0  0  0  0  0  0
    2.5238   -4.0842   36.3586 H   0  0  0  0  0  0  0  0  0  0  0  0
    1.1115   -4.4201   37.1876 H   0  0  0  0  0  0  0  0  0  0  0  0
    1.7062   -0.5369   35.4199 H   0  0  0  0  0  0  0  0  0  0  0  0
    1.8573   -1.9572   34.3944 H   0  0  0  0  0  0  0  0  0  0  0  0
    3.9220   -2.5877   35.3734 H   0  0  0  0  0  0  0  0  0  0  0  0
    4.0192   -0.8390   35.5442 H   0  0  0  0  0  0  0  0  0  0  0  0
    3.9411   -2.8059   37.6561 H   0  0  0  0  0  0  0  0  0  0  0  0
    3.9419   -1.0573   37.8617 H   0  0  0  0  0  0  0  0  0  0  0  0
    1.6444   -0.9158   38.0656 H   0  0  0  0  0  0  0  0  0  0  0  0
    1.7826   -2.5863   38.6197 H   0  0  0  0  0  0  0  0  0  0  0  0
   -0.5987   -1.9335   37.6942 H   0  0  0  0  0  0  0  0  0  0  0  0
   -0.2898   -0.7679   36.4521 H   0  0  0  0  0  0  0  0  0  0  0  0
   -4.7301   -0.9031   38.3476 H   0  0  0  0  0  0  0  0  0  0  0  0
   -9.9065   -1.4784   35.7632 H   0  0  0  0  0  0  0  0  0  0  0  0
  1  2  2  0
  2  3  1  0
  3  4  1  0
  4  5  2  0
  5  6  1  0
  6  7  2  0
  7  8  1  0
  8  9  1  0
  9 10  1  0
 10 11  1  0
 11 12  1  0
 12 13  1  0
 13 14  1  0
 14 15  1  0
 15 16  1  0
 16 17  1  0
 13 18  1  0
  7 19  1  0
 19 20  2  0
  3 21  2  0
 21 22  1  0
 22  1  1  0
 20  4  1  0
 18  8  1  0
 17 13  1  0
  1 23  1  0
  2 24  1  0
  5 25  1  0
  6 26  1  0
  9 27  1  0
  9 28  1  0
 10 29  1  0
 10 30  1  0
 11 31  1  0
 11 32  1  0
 12 33  1  0
 12 34  1  0
 14 35  1  0
 14 36  1  0
 15 37  1  0
 15 38  1  0
 16 39  1  0
 16 40  1  0
 17 41  1  0
 17 42  1  0
 18 43  1  0
 18 44  1  0
 20 45  1  0
 22 46  1  0
M  END
>  <Energy>  (958) 
53.182441427826696

>  <compound_id>  (958) 
25887

>  <target_id>  (958) 
1

>  <reference_id>  (958) 
7

>  <inspiration_ids>  (958) 
[56, 7]

>  <energy_score>  (958) 
-23.141204981660508

>  <distance_score>  (958) 
3.5430570398471346

>  <path>  (958) 
/opt/xchem-fragalysis-2/maxwin/BulkDock/SCRATCH/511022/C25887-P7/C25887-P7.minimised.mol

>  <scratch_subdir>  (958) 
/opt/xchem-fragalysis-2/maxwin/BulkDock/SCRATCH/511022/C25887-P7

>  <fragmenstein_runtime>  (958) 
4.637113571166992

>  <fragmenstein_outcome>  (958) 
too moved

>  <fragmenstein_mode>  (958) 
expansion

>  <fragmenstein_error>  (958) 


$$$$
C5301-P56
     RDKit          3D

 38 41  0  0  0  0  0  0  0  0999 V2000
   -8.6317   -1.1677   37.8067 C   0  0  0  0  0  0  0  0  0  0  0  0
   -8.0516   -0.9499   36.5639 C   0  0  0  0  0  0  0  0  0  0  0  0
   -6.6252   -0.8770   36.4271 C   0  0  0  0  0  0  0  0  0  0  0  0
   -5.7584   -1.0233   37.5327 C   0  0  0  0  0  0  0  0  0  0  0  0
   -4.2085   -1.3508   37.4847 C   0  0  0  0  0  0  0  0  0  0  0  0
   -3.5191   -1.8373   38.5085 N   0  0  0  0  0  0  0  0  0  0  0  0
   -2.2830   -2.4003   38.1539 N   0  0  0  0  0  0  0  0  0  0  0  0
   -2.0182   -2.3237   36.8715 C   0  0  0  0  0  0  0  0  0  0  0  0
   -0.9244   -2.9002   36.2739 N   0  0  0  0  0  0  0  0  0  0  0  0
   -0.8941   -4.3769   36.3722 C   0  0  0  0  0  0  0  0  0  0  0  0
    0.2972   -4.9448   35.6019 C   0  0  0  0  0  0  0  0  0  0  0  0
    1.6065   -4.2551   35.9990 C   0  0  0  0  0  0  0  0  0  0  0  0
    1.4027   -3.2782   37.1818 C   0  0  0  0  0  0  0  0  0  0  0  0
    2.6288   -2.5336   37.6228 C   0  0  0  0  0  0  0  0  0  0  0  0
    2.7934   -1.3922   38.3854 C   0  0  0  0  0  0  0  0  0  0  0  0
    4.1817   -1.1832   38.4473 C   0  0  0  0  0  0  0  0  0  0  0  0
    4.8637   -2.1261   37.7980 N   0  0  0  0  0  0  0  0  0  0  0  0
    3.9018   -2.9406   37.3237 N   0  0  0  0  0  0  0  0  0  0  0  0
    0.3231   -2.2695   36.7484 C   0  0  0  0  0  0  0  0  0  0  0  0
   -3.2042   -1.3588   36.0368 S   0  0  0  0  0  0  0  0  0  0  0  0
   -6.3619   -1.1973   38.7519 N   0  0  0  0  0  0  0  0  0  0  0  0
   -7.7480   -1.2866   38.8600 C   0  0  0  0  0  0  0  0  0  0  0  0
   -9.7030   -1.2275   37.9509 H   0  0  0  0  0  0  0  0  0  0  0  0
   -8.6743   -0.8363   35.6791 H   0  0  0  0  0  0  0  0  0  0  0  0
   -6.2055   -0.7610   35.4302 H   0  0  0  0  0  0  0  0  0  0  0  0
   -1.8067   -4.8199   35.9814 H   0  0  0  0  0  0  0  0  0  0  0  0
   -0.8497   -4.6946   37.4233 H   0  0  0  0  0  0  0  0  0  0  0  0
    0.3696   -6.0223   35.7897 H   0  0  0  0  0  0  0  0  0  0  0  0
    0.1385   -4.8230   34.5235 H   0  0  0  0  0  0  0  0  0  0  0  0
    1.9864   -3.6985   35.1307 H   0  0  0  0  0  0  0  0  0  0  0  0
    2.3708   -5.0027   36.2080 H   0  0  0  0  0  0  0  0  0  0  0  0
    1.0586   -3.8447   38.0575 H   0  0  0  0  0  0  0  0  0  0  0  0
    2.0195   -0.7864   38.8353 H   0  0  0  0  0  0  0  0  0  0  0  0
    4.7229   -0.3880   38.9427 H   0  0  0  0  0  0  0  0  0  0  0  0
    4.1795   -3.8178   36.8847 H   0  0  0  0  0  0  0  0  0  0  0  0
    0.7047   -1.6483   35.9258 H   0  0  0  0  0  0  0  0  0  0  0  0
    0.1283   -1.5715   37.5751 H   0  0  0  0  0  0  0  0  0  0  0  0
   -8.0983   -1.4511   39.8770 H   0  0  0  0  0  0  0  0  0  0  0  0
  1  2  2  0
  2  3  1  0
  3  4  2  0
  4  5  1  0
  5  6  2  0
  6  7  1  0
  7  8  2  0
  8  9  1  0
  9 10  1  0
 10 11  1  0
 11 12  1  0
 12 13  1  0
 13 14  1  0
 14 15  2  0
 15 16  1  0
 16 17  2  0
 17 18  1  0
 13 19  1  0
  8 20  1  0
  4 21  1  0
 21 22  2  0
 22  1  1  0
 20  5  1  0
 19  9  1  0
 18 14  1  0
  1 23  1  0
  2 24  1  0
  3 25  1  0
 10 26  1  0
 10 27  1  0
 11 28  1  0
 11 29  1  0
 12 30  1  0
 12 31  1  0
 13 32  1  0
 15 33  1  0
 16 34  1  0
 18 35  1  0
 19 36  1  0
 19 37  1  0
 22 38  1  0
M  END
>  <Energy>  (959) 
86.347050156507166

>  <compound_id>  (959) 
5301

>  <target_id>  (959) 
1

>  <reference_id>  (959) 
56

>  <inspiration_ids>  (959) 
[56, 7]

>  <energy_score>  (959) 
-71.14295550504728

>  <distance_score>  (959) 
4.77362788746076

>  <path>  (959) 
/opt/xchem-fragalysis-2/maxwin/BulkDock/SCRATCH/511022/C5301-P56/C5301-P56.minimised.mol

>  <scratch_subdir>  (959) 
/opt/xchem-fragalysis-2/maxwin/BulkDock/SCRATCH/511022/C5301-P56

>  <fragmenstein_runtime>  (959) 
5.2876996994018555

>  <fragmenstein_outcome>  (959) 
too moved

>  <fragmenstein_mode>  (959) 
expansion

>  <fragmenstein_error>  (959) 


$$$$
C5301-P7
     RDKit          3D

 38 41  0  0  0  0  0  0  0  0999 V2000
   -8.2912   -1.2369   37.5506 C   0  0  0  0  0  0  0  0  0  0  0  0
   -7.9663   -1.2013   36.2057 C   0  0  0  0  0  0  0  0  0  0  0  0
   -6.5933   -1.1300   35.8158 C   0  0  0  0  0  0  0  0  0  0  0  0
   -5.5193   -1.1084   36.7540 C   0  0  0  0  0  0  0  0  0  0  0  0
   -4.0221   -1.2913   36.3125 C   0  0  0  0  0  0  0  0  0  0  0  0
   -3.6498   -1.2865   35.0390 N   0  0  0  0  0  0  0  0  0  0  0  0
   -2.3439   -1.7417   34.8221 N   0  0  0  0  0  0  0  0  0  0  0  0
   -1.7107   -2.1101   35.9172 C   0  0  0  0  0  0  0  0  0  0  0  0
   -0.5620   -2.8795   35.9287 N   0  0  0  0  0  0  0  0  0  0  0  0
    0.6027   -2.4830   36.7158 C   0  0  0  0  0  0  0  0  0  0  0  0
    1.6428   -3.6175   36.8844 C   0  0  0  0  0  0  0  0  0  0  0  0
    1.6354   -4.6972   35.8071 C   0  0  0  0  0  0  0  0  0  0  0  0
    1.1353   -4.1056   34.5090 C   0  0  0  0  0  0  0  0  0  0  0  0
    2.0576   -3.0388   34.0017 C   0  0  0  0  0  0  0  0  0  0  0  0
    1.8809   -1.7171   33.6408 C   0  0  0  0  0  0  0  0  0  0  0  0
    3.1417   -1.2837   33.1959 C   0  0  0  0  0  0  0  0  0  0  0  0
    4.0551   -2.2541   33.2420 N   0  0  0  0  0  0  0  0  0  0  0  0
    3.3710   -3.3111   33.7066 N   0  0  0  0  0  0  0  0  0  0  0  0
   -0.3162   -3.6447   34.6931 C   0  0  0  0  0  0  0  0  0  0  0  0
   -2.6366   -1.6388   37.3417 S   0  0  0  0  0  0  0  0  0  0  0  0
   -5.8586   -1.1287   38.0714 N   0  0  0  0  0  0  0  0  0  0  0  0
   -7.2151   -1.2033   38.4260 C   0  0  0  0  0  0  0  0  0  0  0  0
   -9.3131   -1.2732   37.9061 H   0  0  0  0  0  0  0  0  0  0  0  0
   -8.7391   -1.2168   35.4416 H   0  0  0  0  0  0  0  0  0  0  0  0
   -6.3511   -1.1323   34.7529 H   0  0  0  0  0  0  0  0  0  0  0  0
    0.3129   -2.1359   37.7155 H   0  0  0  0  0  0  0  0  0  0  0  0
    1.0785   -1.6131   36.2492 H   0  0  0  0  0  0  0  0  0  0  0  0
    1.5550   -4.0785   37.8722 H   0  0  0  0  0  0  0  0  0  0  0  0
    2.6344   -3.1445   36.9065 H   0  0  0  0  0  0  0  0  0  0  0  0
    0.9711   -5.5223   36.0698 H   0  0  0  0  0  0  0  0  0  0  0  0
    2.6371   -5.1323   35.7111 H   0  0  0  0  0  0  0  0  0  0  0  0
    1.1275   -4.8983   33.7472 H   0  0  0  0  0  0  0  0  0  0  0  0
    0.9674   -1.1396   33.6927 H   0  0  0  0  0  0  0  0  0  0  0  0
    3.4296   -0.3044   32.8359 H   0  0  0  0  0  0  0  0  0  0  0  0
    3.8603   -4.1951   33.8012 H   0  0  0  0  0  0  0  0  0  0  0  0
   -0.9339   -4.5481   34.7494 H   0  0  0  0  0  0  0  0  0  0  0  0
   -0.6336   -3.0976   33.7964 H   0  0  0  0  0  0  0  0  0  0  0  0
   -7.3751   -1.2241   39.5036 H   0  0  0  0  0  0  0  0  0  0  0  0
  1  2  2  0
  2  3  1  0
  3  4  2  0
  4  5  1  0
  5  6  2  0
  6  7  1  0
  7  8  2  0
  8  9  1  0
  9 10  1  0
 10 11  1  0
 11 12  1  0
 12 13  1  0
 13 14  1  0
 14 15  2  0
 15 16  1  0
 16 17  2  0
 17 18  1  0
 13 19  1  0
  8 20  1  0
  4 21  1  0
 21 22  2  0
 22  1  1  0
 20  5  1  0
 19  9  1  0
 18 14  1  0
  1 23  1  0
  2 24  1  0
  3 25  1  0
 10 26  1  0
 10 27  1  0
 11 28  1  0
 11 29  1  0
 12 30  1  0
 12 31  1  0
 13 32  1  0
 15 33  1  0
 16 34  1  0
 18 35  1  0
 19 36  1  0
 19 37  1  0
 22 38  1  0
M  END
>  <Energy>  (960) 
76.865979218586048

>  <compound_id>  (960) 
5301

>  <target_id>  (960) 
1

>  <reference_id>  (960) 
7

>  <inspiration_ids>  (960) 
[56, 7]

>  <energy_score>  (960) 
-80.62402644296841

>  <distance_score>  (960) 
5.342265008407391

>  <path>  (960) 
/opt/xchem-fragalysis-2/maxwin/BulkDock/SCRATCH/511022/C5301-P7/C5301-P7.minimised.mol

>  <scratch_subdir>  (960) 
/opt/xchem-fragalysis-2/maxwin/BulkDock/SCRATCH/511022/C5301-P7

>  <fragmenstein_runtime>  (960) 
5.754244804382324

>  <fragmenstein_outcome>  (960) 
too moved

>  <fragmenstein_mode>  (960) 
expansion

>  <fragmenstein_error>  (960) 


$$$$
C25891-P56
     RDKit          3D

 36 38  0  0  0  0  0  0  0  0999 V2000
    0.9811   -2.1924   35.4091 C   0  0  0  0  0  0  0  0  0  0  0  0
   -0.5064   -2.6068   35.1339 C   0  0  0  0  0  0  0  0  0  0  0  0
   -0.7937   -2.2066   33.6718 C   0  0  0  0  0  0  0  0  0  0  0  0
   -1.4814   -1.8168   36.1424 C   0  0  0  0  0  0  0  0  0  0  0  0
   -1.0257   -1.3179   37.1051 O   0  0  0  0  0  0  0  0  0  0  0  0
   -2.9538   -1.7947   35.5823 N   0  0  0  0  0  0  0  0  0  0  0  0
   -4.1056   -1.2642   36.1190 C   0  0  0  0  0  0  0  0  0  0  0  0
   -4.2899   -0.8265   37.3427 N   0  0  0  0  0  0  0  0  0  0  0  0
   -5.6391   -0.4936   37.5851 N   0  0  0  0  0  0  0  0  0  0  0  0
   -6.4503   -0.7359   36.5611 C   0  0  0  0  0  0  0  0  0  0  0  0
   -7.9687   -0.6624   36.6123 C   0  0  0  0  0  0  0  0  0  0  0  0
   -8.6109    0.3722   37.2959 C   0  0  0  0  0  0  0  0  0  0  0  0
  -10.0034    0.3752   37.4096 C   0  0  0  0  0  0  0  0  0  0  0  0
  -10.7379   -0.6640   36.8619 C   0  0  0  0  0  0  0  0  0  0  0  0
  -10.0488   -1.6612   36.2048 C   0  0  0  0  0  0  0  0  0  0  0  0
   -8.6894   -1.6916   36.0708 N   0  0  0  0  0  0  0  0  0  0  0  0
   -5.5291   -1.1866   35.1338 S   0  0  0  0  0  0  0  0  0  0  0  0
   -0.5239   -4.1125   35.3512 C   0  0  0  0  0  0  0  0  0  0  0  0
   -0.0423   -5.1142   34.4594 C   0  0  0  0  0  0  0  0  0  0  0  0
   -0.1649   -6.3006   35.1370 C   0  0  0  0  0  0  0  0  0  0  0  0
   -0.6706   -5.9739   36.3546 N   0  0  0  0  0  0  0  0  0  0  0  0
   -0.9006   -4.6608   36.5140 N   0  0  0  0  0  0  0  0  0  0  0  0
    1.6796   -2.6813   34.7196 H   0  0  0  0  0  0  0  0  0  0  0  0
    1.2846   -2.4548   36.4301 H   0  0  0  0  0  0  0  0  0  0  0  0
    1.1029   -1.1082   35.3018 H   0  0  0  0  0  0  0  0  0  0  0  0
   -0.9194   -1.1216   33.5805 H   0  0  0  0  0  0  0  0  0  0  0  0
    0.0257   -2.4985   33.0038 H   0  0  0  0  0  0  0  0  0  0  0  0
   -1.6942   -2.6816   33.2720 H   0  0  0  0  0  0  0  0  0  0  0  0
   -3.0176   -2.3986   34.7722 H   0  0  0  0  0  0  0  0  0  0  0  0
   -8.0263    1.1635   37.7588 H   0  0  0  0  0  0  0  0  0  0  0  0
  -10.5023    1.1740   37.9527 H   0  0  0  0  0  0  0  0  0  0  0  0
  -11.8158   -0.7041   36.9690 H   0  0  0  0  0  0  0  0  0  0  0  0
  -10.5873   -2.4964   35.7683 H   0  0  0  0  0  0  0  0  0  0  0  0
    0.3621   -4.9833   33.4656 H   0  0  0  0  0  0  0  0  0  0  0  0
    0.0720   -7.3160   34.8643 H   0  0  0  0  0  0  0  0  0  0  0  0
   -0.9057   -6.5857   37.1275 H   0  0  0  0  0  0  0  0  0  0  0  0
  1  2  1  0
  2  3  1  0
  2  4  1  0
  4  5  2  0
  4  6  1  0
  6  7  1  0
  7  8  2  0
  8  9  1  0
  9 10  2  0
 10 11  1  0
 11 12  2  0
 12 13  1  0
 13 14  2  0
 14 15  1  0
 15 16  2  0
 10 17  1  0
  2 18  1  0
 18 19  1  0
 19 20  2  0
 20 21  1  0
 21 22  1  0
 17  7  1  0
 22 18  2  0
 16 11  1  0
  1 23  1  0
  1 24  1  0
  1 25  1  0
  3 26  1  0
  3 27  1  0
  3 28  1  0
  6 29  1  0
 12 30  1  0
 13 31  1  0
 14 32  1  0
 15 33  1  0
 19 34  1  0
 20 35  1  0
 21 36  1  0
M  END
>  <Energy>  (961) 
75.374249247180927

>  <compound_id>  (961) 
25891

>  <target_id>  (961) 
1

>  <reference_id>  (961) 
56

>  <inspiration_ids>  (961) 
[56, 7]

>  <energy_score>  (961) 
-58.15557417611544

>  <distance_score>  (961) 
3.4314899399486998

>  <path>  (961) 
/opt/xchem-fragalysis-2/maxwin/BulkDock/SCRATCH/511022/C25891-P56/C25891-P56.minimised.mol

>  <scratch_subdir>  (961) 
/opt/xchem-fragalysis-2/maxwin/BulkDock/SCRATCH/511022/C25891-P56

>  <fragmenstein_runtime>  (961) 
3.1942901611328125

>  <fragmenstein_outcome>  (961) 
too moved

>  <fragmenstein_mode>  (961) 
expansion

>  <fragmenstein_error>  (961) 


$$$$
C25891-P7
     RDKit          3D

 36 38  0  0  0  0  0  0  0  0999 V2000
    0.9261   -2.1484   35.3210 C   0  0  0  0  0  0  0  0  0  0  0  0
   -0.5298   -2.5210   34.8564 C   0  0  0  0  0  0  0  0  0  0  0  0
   -0.7672   -1.7110   33.5625 C   0  0  0  0  0  0  0  0  0  0  0  0
   -1.5841   -2.0684   35.9854 C   0  0  0  0  0  0  0  0  0  0  0  0
   -1.1793   -1.8688   37.0700 O   0  0  0  0  0  0  0  0  0  0  0  0
   -3.0343   -1.9208   35.3979 N   0  0  0  0  0  0  0  0  0  0  0  0
   -4.1864   -1.4343   35.9746 C   0  0  0  0  0  0  0  0  0  0  0  0
   -4.3588   -1.1078   37.2353 N   0  0  0  0  0  0  0  0  0  0  0  0
   -5.6999   -0.7731   37.5142 N   0  0  0  0  0  0  0  0  0  0  0  0
   -6.5207   -0.9281   36.4823 C   0  0  0  0  0  0  0  0  0  0  0  0
   -8.0332   -0.8421   36.5435 C   0  0  0  0  0  0  0  0  0  0  0  0
   -8.6772    0.2968   37.0284 C   0  0  0  0  0  0  0  0  0  0  0  0
  -10.0707    0.3123   37.1369 C   0  0  0  0  0  0  0  0  0  0  0  0
  -10.7995   -0.8152   36.7879 C   0  0  0  0  0  0  0  0  0  0  0  0
  -10.1034   -1.9180   36.3390 C   0  0  0  0  0  0  0  0  0  0  0  0
   -8.7455   -1.9613   36.2094 N   0  0  0  0  0  0  0  0  0  0  0  0
   -5.6197   -1.2844   35.0161 S   0  0  0  0  0  0  0  0  0  0  0  0
   -0.4671   -4.0330   34.6141 C   0  0  0  0  0  0  0  0  0  0  0  0
   -0.5804   -4.7045   33.3667 C   0  0  0  0  0  0  0  0  0  0  0  0
   -0.2915   -6.0196   33.6173 C   0  0  0  0  0  0  0  0  0  0  0  0
    0.0759   -6.0717   34.9199 N   0  0  0  0  0  0  0  0  0  0  0  0
   -0.0889   -4.9042   35.5700 N   0  0  0  0  0  0  0  0  0  0  0  0
    1.6765   -2.4396   34.5763 H   0  0  0  0  0  0  0  0  0  0  0  0
    1.1886   -2.6334   36.2688 H   0  0  0  0  0  0  0  0  0  0  0  0
    1.0100   -1.0671   35.4829 H   0  0  0  0  0  0  0  0  0  0  0  0
    0.0732   -1.8127   32.8650 H   0  0  0  0  0  0  0  0  0  0  0  0
   -1.6607   -2.0357   33.0194 H   0  0  0  0  0  0  0  0  0  0  0  0
   -0.8855   -0.6441   33.7844 H   0  0  0  0  0  0  0  0  0  0  0  0
   -3.0486   -2.2547   34.4455 H   0  0  0  0  0  0  0  0  0  0  0  0
   -8.0970    1.1631   37.3349 H   0  0  0  0  0  0  0  0  0  0  0  0
  -10.5765    1.1964   37.5170 H   0  0  0  0  0  0  0  0  0  0  0  0
  -11.8799   -0.8381   36.8800 H   0  0  0  0  0  0  0  0  0  0  0  0
  -10.6340   -2.8264   36.0680 H   0  0  0  0  0  0  0  0  0  0  0  0
   -0.8268   -4.2863   32.4022 H   0  0  0  0  0  0  0  0  0  0  0  0
   -0.2467   -6.8843   32.9720 H   0  0  0  0  0  0  0  0  0  0  0  0
    0.4501   -6.8650   35.4250 H   0  0  0  0  0  0  0  0  0  0  0  0
  1  2  1  0
  2  3  1  0
  2  4  1  0
  4  5  2  0
  4  6  1  0
  6  7  1  0
  7  8  2  0
  8  9  1  0
  9 10  2  0
 10 11  1  0
 11 12  2  0
 12 13  1  0
 13 14  2  0
 14 15  1  0
 15 16  2  0
 10 17  1  0
  2 18  1  0
 18 19  1  0
 19 20  2  0
 20 21  1  0
 21 22  1  0
 17  7  1  0
 22 18  2  0
 16 11  1  0
  1 23  1  0
  1 24  1  0
  1 25  1  0
  3 26  1  0
  3 27  1  0
  3 28  1  0
  6 29  1  0
 12 30  1  0
 13 31  1  0
 14 32  1  0
 15 33  1  0
 19 34  1  0
 20 35  1  0
 21 36  1  0
M  END
>  <Energy>  (962) 
79.388400687373206

>  <compound_id>  (962) 
25891

>  <target_id>  (962) 
1

>  <reference_id>  (962) 
7

>  <inspiration_ids>  (962) 
[56, 7]

>  <energy_score>  (962) 
-54.141422735923264

>  <distance_score>  (962) 
3.4451786649334344

>  <path>  (962) 
/opt/xchem-fragalysis-2/maxwin/BulkDock/SCRATCH/511022/C25891-P7/C25891-P7.minimised.mol

>  <scratch_subdir>  (962) 
/opt/xchem-fragalysis-2/maxwin/BulkDock/SCRATCH/511022/C25891-P7

>  <fragmenstein_runtime>  (962) 
3.099320650100708

>  <fragmenstein_outcome>  (962) 
too moved

>  <fragmenstein_mode>  (962) 
expansion

>  <fragmenstein_error>  (962) 


$$$$
C25892-P56
     RDKit          3D

 50 51  0  0  0  0  0  0  0  0999 V2000
    0.8486   -5.4756   31.5948 C   0  0  0  0  0  0  0  0  0  0  0  0
   -0.2028   -6.4576   32.0176 C   0  0  0  0  0  0  0  0  0  0  0  0
   -0.6771   -7.3660   31.0703 C   0  0  0  0  0  0  0  0  0  0  0  0
   -1.5898   -8.3377   31.3120 N   0  0  0  0  0  0  0  0  0  0  0  0
   -2.0159   -8.4399   32.5838 C   0  0  0  0  0  0  0  0  0  0  0  0
   -1.6318   -7.5753   33.5945 C   0  0  0  0  0  0  0  0  0  0  0  0
   -0.7553   -6.5160   33.3064 C   0  0  0  0  0  0  0  0  0  0  0  0
   -0.3887   -5.5818   34.4429 C   0  0  0  0  0  0  0  0  0  0  0  0
   -0.3382   -4.0623   34.1664 C   0  0  0  0  0  0  0  0  0  0  0  0
   -0.7437   -3.5509   33.1576 O   0  0  0  0  0  0  0  0  0  0  0  0
    0.3561   -3.4902   35.2926 N   0  0  0  0  0  0  0  0  0  0  0  0
   -0.6697   -3.0298   36.3734 C   0  0  0  0  0  0  0  0  0  0  0  0
   -1.7284   -1.7996   36.3442 C   0  0  0  0  0  0  0  0  0  0  0  0
   -3.0143   -1.6836   37.2764 N   0  0  0  0  0  0  0  0  0  0  0  0
   -2.0235   -1.9708   38.3218 C   0  0  0  0  0  0  0  0  0  0  0  0
   -3.7348   -0.4791   36.9770 C   0  0  0  0  0  0  0  0  0  0  0  0
   -3.6421    0.6235   37.4490 O   0  0  0  0  0  0  0  0  0  0  0  0
   -4.8418   -0.6686   35.9878 C   0  0  0  0  0  0  0  0  0  0  0  0
   -6.0365    0.1229   35.9562 C   0  0  0  0  0  0  0  0  0  0  0  0
   -6.8010   -0.3847   34.9370 C   0  0  0  0  0  0  0  0  0  0  0  0
   -6.0528   -1.3777   34.3844 N   0  0  0  0  0  0  0  0  0  0  0  0
   -4.8990   -1.6169   35.0347 N   0  0  0  0  0  0  0  0  0  0  0  0
    0.8926   -2.1041   35.5117 C   0  0  0  0  0  0  0  0  0  0  0  0
    0.4774   -0.9870   34.5333 C   0  0  0  0  0  0  0  0  0  0  0  0
    1.5788   -1.6550   36.8264 C   0  0  0  0  0  0  0  0  0  0  0  0
    0.3875   -4.5859   31.1572 H   0  0  0  0  0  0  0  0  0  0  0  0
    1.4924   -5.1869   32.4305 H   0  0  0  0  0  0  0  0  0  0  0  0
    1.5092   -5.9132   30.8404 H   0  0  0  0  0  0  0  0  0  0  0  0
   -0.3024   -7.3461   30.0488 H   0  0  0  0  0  0  0  0  0  0  0  0
   -2.7116   -9.2493   32.7808 H   0  0  0  0  0  0  0  0  0  0  0  0
   -2.0330   -7.7207   34.5925 H   0  0  0  0  0  0  0  0  0  0  0  0
    0.6009   -5.8991   34.8002 H   0  0  0  0  0  0  0  0  0  0  0  0
   -1.0870   -5.7379   35.2736 H   0  0  0  0  0  0  0  0  0  0  0  0
   -0.1600   -3.1409   37.3413 H   0  0  0  0  0  0  0  0  0  0  0  0
   -1.3558   -3.8911   36.4062 H   0  0  0  0  0  0  0  0  0  0  0  0
   -1.2259   -0.8216   36.3838 H   0  0  0  0  0  0  0  0  0  0  0  0
   -2.1753   -1.8392   35.3418 H   0  0  0  0  0  0  0  0  0  0  0  0
   -1.8421   -3.0424   38.4548 H   0  0  0  0  0  0  0  0  0  0  0  0
   -1.1665   -1.2901   38.4170 H   0  0  0  0  0  0  0  0  0  0  0  0
   -2.5769   -1.7267   39.2429 H   0  0  0  0  0  0  0  0  0  0  0  0
   -6.2771    0.9493   36.6113 H   0  0  0  0  0  0  0  0  0  0  0  0
   -7.7644   -0.1049   34.5399 H   0  0  0  0  0  0  0  0  0  0  0  0
   -6.2685   -1.9434   33.5695 H   0  0  0  0  0  0  0  0  0  0  0  0
    1.8436   -2.3518   34.9998 H   0  0  0  0  0  0  0  0  0  0  0  0
   -0.5286   -1.1122   34.1285 H   0  0  0  0  0  0  0  0  0  0  0  0
    1.1469   -0.9631   33.6639 H   0  0  0  0  0  0  0  0  0  0  0  0
    0.5393   -0.0033   35.0106 H   0  0  0  0  0  0  0  0  0  0  0  0
    0.8865   -1.1577   37.5094 H   0  0  0  0  0  0  0  0  0  0  0  0
    2.0382   -2.5042   37.3443 H   0  0  0  0  0  0  0  0  0  0  0  0
    2.3723   -0.9296   36.6097 H   0  0  0  0  0  0  0  0  0  0  0  0
  1  2  1  0
  2  3  2  0
  3  4  1  0
  4  5  2  0
  5  6  1  0
  6  7  2  0
  7  8  1  0
  8  9  1  0
  9 10  2  0
  9 11  1  0
 11 12  1  0
 12 13  1  0
 13 14  1  0
 14 15  1  0
 14 16  1  0
 16 17  2  0
 16 18  1  0
 18 19  1  0
 19 20  2  0
 20 21  1  0
 21 22  1  0
 11 23  1  0
 23 24  1  0
 23 25  1  0
  7  2  1  0
 22 18  2  0
  1 26  1  0
  1 27  1  0
  1 28  1  0
  3 29  1  0
  5 30  1  0
  6 31  1  0
  8 32  1  0
  8 33  1  0
 12 34  1  0
 12 35  1  0
 13 36  1  0
 13 37  1  0
 15 38  1  0
 15 39  1  0
 15 40  1  0
 19 41  1  0
 20 42  1  0
 21 43  1  0
 23 44  1  0
 24 45  1  0
 24 46  1  0
 24 47  1  0
 25 48  1  0
 25 49  1  0
 25 50  1  0
M  END
>  <Energy>  (963) 
267.14969763249513

>  <compound_id>  (963) 
25892

>  <target_id>  (963) 
1

>  <reference_id>  (963) 
56

>  <inspiration_ids>  (963) 
[56, 7]

>  <energy_score>  (963) 
119.49968684020786

>  <distance_score>  (963) 
3.8856374476400863

>  <path>  (963) 
/opt/xchem-fragalysis-2/maxwin/BulkDock/SCRATCH/511022/C25892-P56/C25892-P56.minimised.mol

>  <scratch_subdir>  (963) 
/opt/xchem-fragalysis-2/maxwin/BulkDock/SCRATCH/511022/C25892-P56

>  <fragmenstein_runtime>  (963) 
5.978382349014282

>  <fragmenstein_outcome>  (963) 
too moved

>  <fragmenstein_mode>  (963) 
expansion

>  <fragmenstein_error>  (963) 


$$$$
C25892-P7
     RDKit          3D

 50 51  0  0  0  0  0  0  0  0999 V2000
    0.4983   -5.0723   31.0708 C   0  0  0  0  0  0  0  0  0  0  0  0
   -0.3544   -6.1049   31.7450 C   0  0  0  0  0  0  0  0  0  0  0  0
   -0.8018   -7.1894   30.9877 C   0  0  0  0  0  0  0  0  0  0  0  0
   -1.5577   -8.2118   31.4536 N   0  0  0  0  0  0  0  0  0  0  0  0
   -1.7864   -8.2030   32.7790 C   0  0  0  0  0  0  0  0  0  0  0  0
   -1.4021   -7.1716   33.6231 C   0  0  0  0  0  0  0  0  0  0  0  0
   -0.7444   -6.0507   33.0916 C   0  0  0  0  0  0  0  0  0  0  0  0
   -0.4171   -4.9045   34.0297 C   0  0  0  0  0  0  0  0  0  0  0  0
   -0.6596   -3.4657   33.5118 C   0  0  0  0  0  0  0  0  0  0  0  0
   -1.3366   -3.2071   32.5525 O   0  0  0  0  0  0  0  0  0  0  0  0
    0.1514   -2.6113   34.3441 N   0  0  0  0  0  0  0  0  0  0  0  0
   -0.6972   -2.0740   35.5468 C   0  0  0  0  0  0  0  0  0  0  0  0
   -1.8462   -0.9137   35.5864 C   0  0  0  0  0  0  0  0  0  0  0  0
   -2.8742   -0.7649   36.7858 N   0  0  0  0  0  0  0  0  0  0  0  0
   -1.6278   -0.6502   37.5617 C   0  0  0  0  0  0  0  0  0  0  0  0
   -3.8694    0.2190   36.4659 C   0  0  0  0  0  0  0  0  0  0  0  0
   -3.8906    1.4032   36.6738 O   0  0  0  0  0  0  0  0  0  0  0  0
   -5.1161   -0.3403   35.8701 C   0  0  0  0  0  0  0  0  0  0  0  0
   -6.4371    0.1048   36.2058 C   0  0  0  0  0  0  0  0  0  0  0  0
   -7.2855   -0.5577   35.3564 C   0  0  0  0  0  0  0  0  0  0  0  0
   -6.4734   -1.2780   34.5363 N   0  0  0  0  0  0  0  0  0  0  0  0
   -5.1770   -1.2686   34.8989 N   0  0  0  0  0  0  0  0  0  0  0  0
    0.5005   -1.1462   34.2091 C   0  0  0  0  0  0  0  0  0  0  0  0
    1.3277   -1.1263   32.8806 C   0  0  0  0  0  0  0  0  0  0  0  0
    1.5047   -0.5672   35.2424 C   0  0  0  0  0  0  0  0  0  0  0  0
   -0.1254   -4.3156   30.5868 H   0  0  0  0  0  0  0  0  0  0  0  0
    1.1825   -4.5906   31.7754 H   0  0  0  0  0  0  0  0  0  0  0  0
    1.1280   -5.5322   30.3024 H   0  0  0  0  0  0  0  0  0  0  0  0
   -0.5461   -7.2659   29.9328 H   0  0  0  0  0  0  0  0  0  0  0  0
   -2.3273   -9.0623   33.1650 H   0  0  0  0  0  0  0  0  0  0  0  0
   -1.6539   -7.2273   34.6772 H   0  0  0  0  0  0  0  0  0  0  0  0
    0.6459   -5.0079   34.2876 H   0  0  0  0  0  0  0  0  0  0  0  0
   -0.9755   -5.0189   34.9646 H   0  0  0  0  0  0  0  0  0  0  0  0
   -1.2996   -2.9564   35.8074 H   0  0  0  0  0  0  0  0  0  0  0  0
    0.0014   -2.0342   36.3916 H   0  0  0  0  0  0  0  0  0  0  0  0
   -2.4898   -1.1424   34.7248 H   0  0  0  0  0  0  0  0  0  0  0  0
   -1.4670    0.0962   35.3579 H   0  0  0  0  0  0  0  0  0  0  0  0
   -0.9185    0.1435   37.2877 H   0  0  0  0  0  0  0  0  0  0  0  0
   -1.2061   -1.6084   37.8617 H   0  0  0  0  0  0  0  0  0  0  0  0
   -1.9928   -0.2639   38.5272 H   0  0  0  0  0  0  0  0  0  0  0  0
   -6.6963    0.8426   36.9532 H   0  0  0  0  0  0  0  0  0  0  0  0
   -8.3554   -0.5222   35.2197 H   0  0  0  0  0  0  0  0  0  0  0  0
   -6.7312   -1.7971   33.7044 H   0  0  0  0  0  0  0  0  0  0  0  0
   -0.3272   -0.4944   33.9170 H   0  0  0  0  0  0  0  0  0  0  0  0
    0.7272   -1.4830   32.0362 H   0  0  0  0  0  0  0  0  0  0  0  0
    2.2144   -1.7676   32.9503 H   0  0  0  0  0  0  0  0  0  0  0  0
    1.6550   -0.1095   32.6358 H   0  0  0  0  0  0  0  0  0  0  0  0
    1.9797    0.3433   34.8584 H   0  0  0  0  0  0  0  0  0  0  0  0
    1.0372   -0.2757   36.1852 H   0  0  0  0  0  0  0  0  0  0  0  0
    2.2959   -1.2914   35.4673 H   0  0  0  0  0  0  0  0  0  0  0  0
  1  2  1  0
  2  3  2  0
  3  4  1  0
  4  5  2  0
  5  6  1  0
  6  7  2  0
  7  8  1  0
  8  9  1  0
  9 10  2  0
  9 11  1  0
 11 12  1  0
 12 13  1  0
 13 14  1  0
 14 15  1  0
 14 16  1  0
 16 17  2  0
 16 18  1  0
 18 19  1  0
 19 20  2  0
 20 21  1  0
 21 22  1  0
 11 23  1  0
 23 24  1  0
 23 25  1  0
  7  2  1  0
 22 18  2  0
  1 26  1  0
  1 27  1  0
  1 28  1  0
  3 29  1  0
  5 30  1  0
  6 31  1  0
  8 32  1  0
  8 33  1  0
 12 34  1  0
 12 35  1  0
 13 36  1  0
 13 37  1  0
 15 38  1  0
 15 39  1  0
 15 40  1  0
 19 41  1  0
 20 42  1  0
 21 43  1  0
 23 44  1  0
 24 45  1  0
 24 46  1  0
 24 47  1  0
 25 48  1  0
 25 49  1  0
 25 50  1  0
M  END
>  <Energy>  (964) 
257.24892962813817

>  <compound_id>  (964) 
25892

>  <target_id>  (964) 
1

>  <reference_id>  (964) 
7

>  <inspiration_ids>  (964) 
[56, 7]

>  <energy_score>  (964) 
109.59891883585132

>  <distance_score>  (964) 
4.015634582775865

>  <path>  (964) 
/opt/xchem-fragalysis-2/maxwin/BulkDock/SCRATCH/511022/C25892-P7/C25892-P7.minimised.mol

>  <scratch_subdir>  (964) 
/opt/xchem-fragalysis-2/maxwin/BulkDock/SCRATCH/511022/C25892-P7

>  <fragmenstein_runtime>  (964) 
10.139282703399658

>  <fragmenstein_outcome>  (964) 
too moved

>  <fragmenstein_mode>  (964) 
expansion

>  <fragmenstein_error>  (964) 


$$$$
C25896-P56
     RDKit          3D

 41 42  0  0  0  0  0  0  0  0999 V2000
   -2.0698    1.3076   34.0038 C   0  0  0  0  0  0  0  0  0  0  0  0
   -2.9243    0.8987   35.2138 C   0  0  0  0  0  0  0  0  0  0  0  0
   -3.5193   -0.5114   35.0744 N   0  0  0  0  0  0  0  0  0  0  0  0
   -4.7322    0.2807   34.6072 C   0  0  0  0  0  0  0  0  0  0  0  0
   -5.8730   -0.6678   34.0499 C   0  0  0  0  0  0  0  0  0  0  0  0
   -5.3655   -2.0274   33.5642 C   0  0  0  0  0  0  0  0  0  0  0  0
   -7.0348   -0.7879   34.9367 N   0  0  0  0  0  0  0  0  0  0  0  0
   -7.8117    0.2119   35.6081 C   0  0  0  0  0  0  0  0  0  0  0  0
   -7.6638    1.3979   35.6815 O   0  0  0  0  0  0  0  0  0  0  0  0
   -9.0517   -0.3508   36.2917 C   0  0  0  0  0  0  0  0  0  0  0  0
   -9.8342    0.4911   37.0903 C   0  0  0  0  0  0  0  0  0  0  0  0
  -11.0127   -0.0020   37.6545 C   0  0  0  0  0  0  0  0  0  0  0  0
  -11.3814   -1.3087   37.3923 C   0  0  0  0  0  0  0  0  0  0  0  0
  -12.5143   -1.8156   37.8936 F   0  0  0  0  0  0  0  0  0  0  0  0
  -10.5650   -2.0767   36.5828 C   0  0  0  0  0  0  0  0  0  0  0  0
   -9.3871   -1.6504   36.0350 N   0  0  0  0  0  0  0  0  0  0  0  0
   -3.2977   -1.2566   36.2733 C   0  0  0  0  0  0  0  0  0  0  0  0
   -3.9788   -1.3726   37.2567 O   0  0  0  0  0  0  0  0  0  0  0  0
   -1.9951   -2.0053   36.1843 C   0  0  0  0  0  0  0  0  0  0  0  0
   -1.1854   -2.2473   35.0340 C   0  0  0  0  0  0  0  0  0  0  0  0
   -0.1189   -2.9941   35.4713 C   0  0  0  0  0  0  0  0  0  0  0  0
   -0.3210   -3.1757   36.8038 N   0  0  0  0  0  0  0  0  0  0  0  0
   -1.4275   -2.5789   37.2668 N   0  0  0  0  0  0  0  0  0  0  0  0
   -2.6530    1.4401   33.0890 H   0  0  0  0  0  0  0  0  0  0  0  0
   -1.3032    0.5541   33.7985 H   0  0  0  0  0  0  0  0  0  0  0  0
   -1.5598    2.2534   34.2141 H   0  0  0  0  0  0  0  0  0  0  0  0
   -2.1850    0.8077   36.0268 H   0  0  0  0  0  0  0  0  0  0  0  0
   -3.5403    1.7260   35.6083 H   0  0  0  0  0  0  0  0  0  0  0  0
   -5.1886    0.8157   35.4522 H   0  0  0  0  0  0  0  0  0  0  0  0
   -4.5289    0.9407   33.7529 H   0  0  0  0  0  0  0  0  0  0  0  0
   -6.2879   -0.1448   33.1771 H   0  0  0  0  0  0  0  0  0  0  0  0
   -6.1385   -2.5276   32.9783 H   0  0  0  0  0  0  0  0  0  0  0  0
   -4.4865   -1.9197   32.9210 H   0  0  0  0  0  0  0  0  0  0  0  0
   -5.1148   -2.6696   34.4077 H   0  0  0  0  0  0  0  0  0  0  0  0
   -7.5070   -1.6860   35.0213 H   0  0  0  0  0  0  0  0  0  0  0  0
   -9.5323    1.5200   37.2672 H   0  0  0  0  0  0  0  0  0  0  0  0
  -11.6362    0.6259   38.2826 H   0  0  0  0  0  0  0  0  0  0  0  0
  -10.8591   -3.0996   36.3635 H   0  0  0  0  0  0  0  0  0  0  0  0
   -1.3859   -1.9403   34.0185 H   0  0  0  0  0  0  0  0  0  0  0  0
    0.7317   -3.4226   34.9616 H   0  0  0  0  0  0  0  0  0  0  0  0
    0.2560   -3.6925   37.4601 H   0  0  0  0  0  0  0  0  0  0  0  0
  1  2  1  0
  2  3  1  0
  3  4  1  0
  4  5  1  0
  5  6  1  0
  5  7  1  0
  7  8  1  0
  8  9  2  0
  8 10  1  0
 10 11  2  0
 11 12  1  0
 12 13  2  0
 13 14  1  0
 13 15  1  0
 15 16  2  0
  3 17  1  0
 17 18  2  0
 17 19  1  0
 19 20  1  0
 20 21  2  0
 21 22  1  0
 22 23  1  0
 16 10  1  0
 23 19  2  0
  1 24  1  0
  1 25  1  0
  1 26  1  0
  2 27  1  0
  2 28  1  0
  4 29  1  0
  4 30  1  0
  5 31  1  0
  6 32  1  0
  6 33  1  0
  6 34  1  0
  7 35  1  0
 11 36  1  0
 12 37  1  0
 15 38  1  0
 20 39  1  0
 21 40  1  0
 22 41  1  0
M  END
>  <Energy>  (965) 
182.1493467775438

>  <compound_id>  (965) 
25896

>  <target_id>  (965) 
1

>  <reference_id>  (965) 
56

>  <inspiration_ids>  (965) 
[56, 7]

>  <energy_score>  (965) 
48.25439340962316

>  <distance_score>  (965) 
5.218210475228776

>  <path>  (965) 
/opt/xchem-fragalysis-2/maxwin/BulkDock/SCRATCH/511022/C25896-P56/C25896-P56.minimised.mol

>  <scratch_subdir>  (965) 
/opt/xchem-fragalysis-2/maxwin/BulkDock/SCRATCH/511022/C25896-P56

>  <fragmenstein_runtime>  (965) 
10.784844398498535

>  <fragmenstein_outcome>  (965) 
too moved

>  <fragmenstein_mode>  (965) 
expansion

>  <fragmenstein_error>  (965) 


$$$$
C25896-P7
     RDKit          3D

 41 42  0  0  0  0  0  0  0  0999 V2000
   -1.8760   -0.5371   31.1605 C   0  0  0  0  0  0  0  0  0  0  0  0
   -2.8211   -0.2731   32.3438 C   0  0  0  0  0  0  0  0  0  0  0  0
   -3.0127   -1.5126   33.2348 N   0  0  0  0  0  0  0  0  0  0  0  0
   -4.2002   -0.6831   33.7534 C   0  0  0  0  0  0  0  0  0  0  0  0
   -4.8645   -1.4876   34.9255 C   0  0  0  0  0  0  0  0  0  0  0  0
   -4.0671   -1.3747   36.2236 C   0  0  0  0  0  0  0  0  0  0  0  0
   -6.2712   -1.1833   35.2015 N   0  0  0  0  0  0  0  0  0  0  0  0
   -6.9027    0.0224   35.6302 C   0  0  0  0  0  0  0  0  0  0  0  0
   -6.4586    1.1191   35.7990 O   0  0  0  0  0  0  0  0  0  0  0  0
   -8.3626   -0.2396   36.0073 C   0  0  0  0  0  0  0  0  0  0  0  0
   -9.1786    0.8010   36.4530 C   0  0  0  0  0  0  0  0  0  0  0  0
  -10.5014    0.5169   36.8122 C   0  0  0  0  0  0  0  0  0  0  0  0
  -10.9618   -0.7871   36.7156 C   0  0  0  0  0  0  0  0  0  0  0  0
  -12.2259   -1.0989   37.0294 F   0  0  0  0  0  0  0  0  0  0  0  0
  -10.0911   -1.7652   36.2741 C   0  0  0  0  0  0  0  0  0  0  0  0
   -8.7957   -1.5390   35.9192 N   0  0  0  0  0  0  0  0  0  0  0  0
   -1.7701   -1.8655   33.8642 C   0  0  0  0  0  0  0  0  0  0  0  0
   -1.3060   -1.5257   34.9221 O   0  0  0  0  0  0  0  0  0  0  0  0
   -0.9846   -2.9037   33.1114 C   0  0  0  0  0  0  0  0  0  0  0  0
    0.2715   -3.4224   33.5576 C   0  0  0  0  0  0  0  0  0  0  0  0
    0.6131   -4.4042   32.6666 C   0  0  0  0  0  0  0  0  0  0  0  0
   -0.3880   -4.4269   31.7469 N   0  0  0  0  0  0  0  0  0  0  0  0
   -1.3850   -3.5545   31.9928 N   0  0  0  0  0  0  0  0  0  0  0  0
   -1.8464    0.3431   30.5087 H   0  0  0  0  0  0  0  0  0  0  0  0
   -2.2212   -1.3852   30.5622 H   0  0  0  0  0  0  0  0  0  0  0  0
   -0.8499   -0.7228   31.4884 H   0  0  0  0  0  0  0  0  0  0  0  0
   -2.3413    0.5306   32.9264 H   0  0  0  0  0  0  0  0  0  0  0  0
   -3.7202    0.1070   31.8391 H   0  0  0  0  0  0  0  0  0  0  0  0
   -3.9258    0.2957   34.1764 H   0  0  0  0  0  0  0  0  0  0  0  0
   -4.9965   -0.6172   32.9971 H   0  0  0  0  0  0  0  0  0  0  0  0
   -4.8882   -2.5406   34.6295 H   0  0  0  0  0  0  0  0  0  0  0  0
   -4.6631   -1.6687   37.0925 H   0  0  0  0  0  0  0  0  0  0  0  0
   -3.1825   -2.0095   36.2181 H   0  0  0  0  0  0  0  0  0  0  0  0
   -3.7496   -0.3419   36.4049 H   0  0  0  0  0  0  0  0  0  0  0  0
   -6.9795   -1.9070   35.0916 H   0  0  0  0  0  0  0  0  0  0  0  0
   -8.7900    1.8129   36.5249 H   0  0  0  0  0  0  0  0  0  0  0  0
  -11.1614    1.3034   37.1642 H   0  0  0  0  0  0  0  0  0  0  0  0
  -10.4408   -2.7894   36.1942 H   0  0  0  0  0  0  0  0  0  0  0  0
    0.8172   -3.1178   34.4402 H   0  0  0  0  0  0  0  0  0  0  0  0
    1.4544   -5.0810   32.6089 H   0  0  0  0  0  0  0  0  0  0  0  0
   -0.4554   -5.0265   30.9320 H   0  0  0  0  0  0  0  0  0  0  0  0
  1  2  1  0
  2  3  1  0
  3  4  1  0
  4  5  1  0
  5  6  1  0
  5  7  1  0
  7  8  1  0
  8  9  2  0
  8 10  1  0
 10 11  2  0
 11 12  1  0
 12 13  2  0
 13 14  1  0
 13 15  1  0
 15 16  2  0
  3 17  1  0
 17 18  2  0
 17 19  1  0
 19 20  1  0
 20 21  2  0
 21 22  1  0
 22 23  1  0
 16 10  1  0
 23 19  2  0
  1 24  1  0
  1 25  1  0
  1 26  1  0
  2 27  1  0
  2 28  1  0
  4 29  1  0
  4 30  1  0
  5 31  1  0
  6 32  1  0
  6 33  1  0
  6 34  1  0
  7 35  1  0
 11 36  1  0
 12 37  1  0
 15 38  1  0
 20 39  1  0
 21 40  1  0
 22 41  1  0
M  END
>  <Energy>  (966) 
176.86087927971059

>  <compound_id>  (966) 
25896

>  <target_id>  (966) 
1

>  <reference_id>  (966) 
7

>  <inspiration_ids>  (966) 
[56, 7]

>  <energy_score>  (966) 
42.96592591178981

>  <distance_score>  (966) 
4.977654741259464

>  <path>  (966) 
/opt/xchem-fragalysis-2/maxwin/BulkDock/SCRATCH/511022/C25896-P7/C25896-P7.minimised.mol

>  <scratch_subdir>  (966) 
/opt/xchem-fragalysis-2/maxwin/BulkDock/SCRATCH/511022/C25896-P7

>  <fragmenstein_runtime>  (966) 
9.781922101974487

>  <fragmenstein_outcome>  (966) 
too moved

>  <fragmenstein_mode>  (966) 
expansion

>  <fragmenstein_error>  (966) 


$$$$
C25898-P56
     RDKit          3D

 42 44  0  0  0  0  0  0  0  0999 V2000
   -1.0918   -3.3411   38.7591 C   0  0  0  0  0  0  0  0  0  0  0  0
   -1.8695   -2.7082   37.6649 N   0  0  0  0  0  0  0  0  0  0  0  0
   -0.4518   -2.5099   37.0747 C   0  0  0  0  0  0  0  0  0  0  0  0
    0.4802   -3.6885   36.6453 C   0  0  0  0  0  0  0  0  0  0  0  0
   -0.1496   -4.8005   35.9791 N   0  0  0  0  0  0  0  0  0  0  0  0
   -0.2885   -5.1042   34.5924 C   0  0  0  0  0  0  0  0  0  0  0  0
    0.0126   -4.4748   33.6208 O   0  0  0  0  0  0  0  0  0  0  0  0
   -0.8190   -6.4929   34.4310 C   0  0  0  0  0  0  0  0  0  0  0  0
   -1.0820   -7.1666   33.2073 C   0  0  0  0  0  0  0  0  0  0  0  0
   -1.5427   -8.4105   33.5617 C   0  0  0  0  0  0  0  0  0  0  0  0
   -1.5074   -8.4525   34.9247 N   0  0  0  0  0  0  0  0  0  0  0  0
   -1.0767   -7.3038   35.4848 N   0  0  0  0  0  0  0  0  0  0  0  0
   -2.5993   -1.4712   37.6293 C   0  0  0  0  0  0  0  0  0  0  0  0
   -2.6894   -0.5922   38.4488 O   0  0  0  0  0  0  0  0  0  0  0  0
   -3.4852   -1.2829   36.4044 C   0  0  0  0  0  0  0  0  0  0  0  0
   -3.1084   -1.5917   35.1119 C   0  0  0  0  0  0  0  0  0  0  0  0
   -4.0486   -1.4143   34.1017 C   0  0  0  0  0  0  0  0  0  0  0  0
   -5.3395   -0.9704   34.4113 C   0  0  0  0  0  0  0  0  0  0  0  0
   -5.6874   -0.6978   35.7329 C   0  0  0  0  0  0  0  0  0  0  0  0
   -7.0843   -0.2776   36.1916 C   0  0  0  0  0  0  0  0  0  0  0  0
   -8.3075   -1.1103   35.8677 C   0  0  0  0  0  0  0  0  0  0  0  0
   -8.1570    0.2527   35.2692 C   0  0  0  0  0  0  0  0  0  0  0  0
   -4.7524   -0.8464   36.7066 N   0  0  0  0  0  0  0  0  0  0  0  0
   -1.8512   -3.4632   39.5472 H   0  0  0  0  0  0  0  0  0  0  0  0
   -0.8007   -4.3769   38.5564 H   0  0  0  0  0  0  0  0  0  0  0  0
   -0.3443   -2.7235   39.2794 H   0  0  0  0  0  0  0  0  0  0  0  0
   -0.6262   -1.9708   36.1381 H   0  0  0  0  0  0  0  0  0  0  0  0
    0.1112   -1.7406   37.6349 H   0  0  0  0  0  0  0  0  0  0  0  0
    1.2361   -3.2851   35.9605 H   0  0  0  0  0  0  0  0  0  0  0  0
    1.0324   -4.0928   37.5005 H   0  0  0  0  0  0  0  0  0  0  0  0
   -0.4409   -5.6097   36.5256 H   0  0  0  0  0  0  0  0  0  0  0  0
   -0.9374   -6.7724   32.2109 H   0  0  0  0  0  0  0  0  0  0  0  0
   -1.8607   -9.2634   32.9802 H   0  0  0  0  0  0  0  0  0  0  0  0
   -1.7132   -9.2454   35.5377 H   0  0  0  0  0  0  0  0  0  0  0  0
   -2.1395   -1.9919   34.8548 H   0  0  0  0  0  0  0  0  0  0  0  0
   -3.7848   -1.6498   33.0742 H   0  0  0  0  0  0  0  0  0  0  0  0
   -6.0682   -0.8631   33.6152 H   0  0  0  0  0  0  0  0  0  0  0  0
   -7.0789    0.1704   37.1862 H   0  0  0  0  0  0  0  0  0  0  0  0
   -8.2094   -1.9521   35.1956 H   0  0  0  0  0  0  0  0  0  0  0  0
   -9.0529   -1.2311   36.6452 H   0  0  0  0  0  0  0  0  0  0  0  0
   -8.7877    1.0501   35.6486 H   0  0  0  0  0  0  0  0  0  0  0  0
   -7.9623    0.3291   34.2070 H   0  0  0  0  0  0  0  0  0  0  0  0
  1  2  1  0
  2  3  1  0
  3  4  1  0
  4  5  1  0
  5  6  1  0
  6  7  2  0
  6  8  1  0
  8  9  1  0
  9 10  2  0
 10 11  1  0
 11 12  1  0
  2 13  1  0
 13 14  2  0
 13 15  1  0
 15 16  2  0
 16 17  1  0
 17 18  2  0
 18 19  1  0
 19 20  1  0
 20 21  1  0
 21 22  1  0
 19 23  2  0
 12  8  2  0
 23 15  1  0
 22 20  1  0
  1 24  1  0
  1 25  1  0
  1 26  1  0
  3 27  1  0
  3 28  1  0
  4 29  1  0
  4 30  1  0
  5 31  1  0
  9 32  1  0
 10 33  1  0
 11 34  1  0
 16 35  1  0
 17 36  1  0
 18 37  1  0
 20 38  1  0
 21 39  1  0
 21 40  1  0
 22 41  1  0
 22 42  1  0
M  END
>  <Energy>  (967) 
182.18517841715337

>  <compound_id>  (967) 
25898

>  <target_id>  (967) 
1

>  <reference_id>  (967) 
56

>  <inspiration_ids>  (967) 
[56, 7]

>  <energy_score>  (967) 
37.11729439661542

>  <distance_score>  (967) 
4.575532933952747

>  <path>  (967) 
/opt/xchem-fragalysis-2/maxwin/BulkDock/SCRATCH/511022/C25898-P56/C25898-P56.minimised.mol

>  <scratch_subdir>  (967) 
/opt/xchem-fragalysis-2/maxwin/BulkDock/SCRATCH/511022/C25898-P56

>  <fragmenstein_runtime>  (967) 
11.606410503387451

>  <fragmenstein_outcome>  (967) 
too moved

>  <fragmenstein_mode>  (967) 
expansion

>  <fragmenstein_error>  (967) 


$$$$
C25898-P7
     RDKit          3D

 42 44  0  0  0  0  0  0  0  0999 V2000
   -0.2938   -1.4084   36.9865 C   0  0  0  0  0  0  0  0  0  0  0  0
   -1.4553   -1.3883   36.0518 N   0  0  0  0  0  0  0  0  0  0  0  0
   -0.3922   -0.7982   35.0997 C   0  0  0  0  0  0  0  0  0  0  0  0
    0.6628   -1.7352   34.4223 C   0  0  0  0  0  0  0  0  0  0  0  0
    0.1600   -2.9605   33.8395 N   0  0  0  0  0  0  0  0  0  0  0  0
   -0.1080   -4.2369   34.4253 C   0  0  0  0  0  0  0  0  0  0  0  0
   -0.0606   -4.5995   35.5645 O   0  0  0  0  0  0  0  0  0  0  0  0
   -0.4124   -5.2390   33.3683 C   0  0  0  0  0  0  0  0  0  0  0  0
   -0.9273   -6.5493   33.5669 C   0  0  0  0  0  0  0  0  0  0  0  0
   -0.9531   -7.1266   32.3223 C   0  0  0  0  0  0  0  0  0  0  0  0
   -0.3627   -6.2226   31.4907 N   0  0  0  0  0  0  0  0  0  0  0  0
   -0.1931   -5.0073   32.0539 N   0  0  0  0  0  0  0  0  0  0  0  0
   -2.6366   -0.5719   36.0444 C   0  0  0  0  0  0  0  0  0  0  0  0
   -2.9449    0.3627   36.7381 O   0  0  0  0  0  0  0  0  0  0  0  0
   -3.7075   -1.0374   35.0613 C   0  0  0  0  0  0  0  0  0  0  0  0
   -3.3704   -1.6085   33.8442 C   0  0  0  0  0  0  0  0  0  0  0  0
   -4.3793   -1.8326   32.9222 C   0  0  0  0  0  0  0  0  0  0  0  0
   -5.6950   -1.5299   33.2649 C   0  0  0  0  0  0  0  0  0  0  0  0
   -6.0069   -1.0388   34.5366 C   0  0  0  0  0  0  0  0  0  0  0  0
   -7.4737   -0.8295   34.9207 C   0  0  0  0  0  0  0  0  0  0  0  0
   -7.8808    0.2855   35.8535 C   0  0  0  0  0  0  0  0  0  0  0  0
   -7.9830   -1.1366   36.3124 C   0  0  0  0  0  0  0  0  0  0  0  0
   -5.0079   -0.7717   35.4167 N   0  0  0  0  0  0  0  0  0  0  0  0
    0.1702   -0.4421   37.2357 H   0  0  0  0  0  0  0  0  0  0  0  0
    0.4030   -2.2355   36.8299 H   0  0  0  0  0  0  0  0  0  0  0  0
   -0.7654   -1.6481   37.9503 H   0  0  0  0  0  0  0  0  0  0  0  0
   -0.9772   -0.4193   34.2490 H   0  0  0  0  0  0  0  0  0  0  0  0
    0.0508    0.1542   35.4428 H   0  0  0  0  0  0  0  0  0  0  0  0
    1.4644   -2.0075   35.1153 H   0  0  0  0  0  0  0  0  0  0  0  0
    1.1382   -1.1776   33.6069 H   0  0  0  0  0  0  0  0  0  0  0  0
    0.0980   -3.0422   32.8248 H   0  0  0  0  0  0  0  0  0  0  0  0
   -1.2136   -6.9947   34.5089 H   0  0  0  0  0  0  0  0  0  0  0  0
   -1.2261   -8.1134   31.9851 H   0  0  0  0  0  0  0  0  0  0  0  0
   -0.0598   -6.3654   30.5308 H   0  0  0  0  0  0  0  0  0  0  0  0
   -2.3576   -1.8748   33.5863 H   0  0  0  0  0  0  0  0  0  0  0  0
   -4.1484   -2.2412   31.9439 H   0  0  0  0  0  0  0  0  0  0  0  0
   -6.4875   -1.7037   32.5424 H   0  0  0  0  0  0  0  0  0  0  0  0
   -8.1807   -1.0375   34.1208 H   0  0  0  0  0  0  0  0  0  0  0  0
   -7.1003    0.9014   36.2900 H   0  0  0  0  0  0  0  0  0  0  0  0
   -8.7954    0.8227   35.6346 H   0  0  0  0  0  0  0  0  0  0  0  0
   -7.2764   -1.4440   37.0750 H   0  0  0  0  0  0  0  0  0  0  0  0
   -8.9779   -1.5510   36.4126 H   0  0  0  0  0  0  0  0  0  0  0  0
  1  2  1  0
  2  3  1  0
  3  4  1  0
  4  5  1  0
  5  6  1  0
  6  7  2  0
  6  8  1  0
  8  9  1  0
  9 10  2  0
 10 11  1  0
 11 12  1  0
  2 13  1  0
 13 14  2  0
 13 15  1  0
 15 16  2  0
 16 17  1  0
 17 18  2  0
 18 19  1  0
 19 20  1  0
 20 21  1  0
 21 22  1  0
 19 23  2  0
 12  8  2  0
 23 15  1  0
 22 20  1  0
  1 24  1  0
  1 25  1  0
  1 26  1  0
  3 27  1  0
  3 28  1  0
  4 29  1  0
  4 30  1  0
  5 31  1  0
  9 32  1  0
 10 33  1  0
 11 34  1  0
 16 35  1  0
 17 36  1  0
 18 37  1  0
 20 38  1  0
 21 39  1  0
 21 40  1  0
 22 41  1  0
 22 42  1  0
M  END
>  <Energy>  (968) 
180.96015916920831

>  <compound_id>  (968) 
25898

>  <target_id>  (968) 
1

>  <reference_id>  (968) 
7

>  <inspiration_ids>  (968) 
[56, 7]

>  <energy_score>  (968) 
35.892275148670706

>  <distance_score>  (968) 
4.882659102291056

>  <path>  (968) 
/opt/xchem-fragalysis-2/maxwin/BulkDock/SCRATCH/511022/C25898-P7/C25898-P7.minimised.mol

>  <scratch_subdir>  (968) 
/opt/xchem-fragalysis-2/maxwin/BulkDock/SCRATCH/511022/C25898-P7

>  <fragmenstein_runtime>  (968) 
11.444915771484375

>  <fragmenstein_outcome>  (968) 
too moved

>  <fragmenstein_mode>  (968) 
expansion

>  <fragmenstein_error>  (968) 


$$$$
C39461-P2
     RDKit          3D

 44 48  0  0  0  0  0  0  0  0999 V2000
    6.7606  -13.3447   13.7446 O   0  0  0  0  0  0  0  0  0  0  0  0
    6.1494  -12.5771   13.1007 C   0  0  0  0  0  0  0  0  0  0  0  0
    5.3091  -13.5528   11.5025 N   0  0  0  0  0  0  0  0  0  0  0  0
    5.4660  -15.3340   10.8268 C   0  0  0  0  0  0  0  0  0  0  0  0
    6.0567  -16.1944    9.4245 C   0  0  0  0  0  0  0  0  0  0  0  0
    5.9279  -17.7699    9.5030 C   0  0  0  0  0  0  0  0  0  0  0  0
    4.6579  -18.0276   10.1560 N   0  0  0  0  0  0  0  0  0  0  0  0
    3.6286  -18.8028    9.6276 C   0  0  0  0  0  0  0  0  0  0  0  0
    3.0870  -19.8926   10.1517 N   0  0  0  0  0  0  0  0  0  0  0  0
    1.9480  -20.1403    9.4091 C   0  0  0  0  0  0  0  0  0  0  0  0
    0.9692  -21.1509    9.4995 C   0  0  0  0  0  0  0  0  0  0  0  0
   -0.1071  -21.1419    8.5941 C   0  0  0  0  0  0  0  0  0  0  0  0
   -0.2064  -20.1439    7.6196 C   0  0  0  0  0  0  0  0  0  0  0  0
    0.7665  -19.1328    7.5114 C   0  0  0  0  0  0  0  0  0  0  0  0
    1.8212  -19.1752    8.4281 C   0  0  0  0  0  0  0  0  0  0  0  0
    2.8930  -18.3124    8.5542 O   0  0  0  0  0  0  0  0  0  0  0  0
    4.2142  -16.8222   10.8528 C   0  0  0  0  0  0  0  0  0  0  0  0
    6.4982  -10.5625   13.8897 C   0  0  0  0  0  0  0  0  0  0  0  0
    8.2891  -10.6175   14.5758 C   0  0  0  0  0  0  0  0  0  0  0  0
    9.6631   -9.6926   15.2032 C   0  0  0  0  0  0  0  0  0  0  0  0
    9.5751   -7.9093   15.1066 C   0  0  0  0  0  0  0  0  0  0  0  0
   10.8548   -6.6353   15.3309 C   0  0  0  0  0  0  0  0  0  0  0  0
   10.3767   -5.0889   14.5767 C   0  0  0  0  0  0  0  0  0  0  0  0
    8.6250   -5.7674   14.4621 N   0  0  0  0  0  0  0  0  0  0  0  0
    8.0697   -7.4010   14.6661 C   0  0  0  0  0  0  0  0  0  0  0  0
    6.7279   -8.5830   13.8897 C   0  0  0  0  0  0  0  0  0  0  0  0
    4.7002  -12.8888   11.0042 H   0  0  0  0  0  0  0  0  0  0  0  0
    4.9834  -14.7595    9.9947 H   0  0  0  0  0  0  0  0  0  0  0  0
    7.0179  -15.8332    9.0516 H   0  0  0  0  0  0  0  0  0  0  0  0
    5.2461  -16.2021    8.6964 H   0  0  0  0  0  0  0  0  0  0  0  0
    5.9616  -18.2000    8.4936 H   0  0  0  0  0  0  0  0  0  0  0  0
    6.7418  -18.2294   10.0717 H   0  0  0  0  0  0  0  0  0  0  0  0
    1.0514  -21.9144   10.2651 H   0  0  0  0  0  0  0  0  0  0  0  0
   -0.8761  -21.9079    8.6656 H   0  0  0  0  0  0  0  0  0  0  0  0
   -1.0567  -20.1397    6.9417 H   0  0  0  0  0  0  0  0  0  0  0  0
    0.6973  -18.3475    6.7703 H   0  0  0  0  0  0  0  0  0  0  0  0
    3.3065  -16.5012   10.3089 H   0  0  0  0  0  0  0  0  0  0  0  0
    4.0059  -17.0990   11.8957 H   0  0  0  0  0  0  0  0  0  0  0  0
    8.8605  -11.5674   14.5379 H   0  0  0  0  0  0  0  0  0  0  0  0
   10.5988  -10.1842   15.4585 H   0  0  0  0  0  0  0  0  0  0  0  0
   11.7578   -6.7350   15.9523 H   0  0  0  0  0  0  0  0  0  0  0  0
   10.4231   -4.0780   14.9869 H   0  0  0  0  0  0  0  0  0  0  0  0
    8.5644   -5.9132   13.5127 H   0  0  0  0  0  0  0  0  0  0  0  0
    5.8828   -7.9333   13.6263 H   0  0  0  0  0  0  0  0  0  0  0  0
  1  2  2  0
  2  3  1  0
  3  4  1  0
  4  5  1  0
  5  6  1  0
  6  7  1  0
  7  8  1  0
  8  9  2  0
  9 10  1  0
 10 11  2  0
 11 12  1  0
 12 13  2  0
 13 14  1  0
 14 15  2  0
 15 16  1  0
  7 17  1  0
  2 18  1  0
 18 19  2  0
 19 20  1  0
 20 21  2  0
 21 22  1  0
 22 23  2  0
 23 24  1  0
 24 25  1  0
 25 26  2  0
 17  4  1  0
 26 18  1  0
 16  8  1  0
 25 21  1  0
 15 10  1  0
  3 27  1  0
  4 28  1  0
  5 29  1  0
  5 30  1  0
  6 31  1  0
  6 32  1  0
 11 33  1  0
 12 34  1  0
 13 35  1  0
 14 36  1  0
 17 37  1  0
 17 38  1  0
 19 39  1  0
 20 40  1  0
 22 41  1  0
 23 42  1  0
 24 43  1  0
 26 44  1  0
M  END
>  <Energy>  (969) 
1218.884415893302

>  <compound_id>  (969) 
39461

>  <target_id>  (969) 
1

>  <reference_id>  (969) 
2

>  <inspiration_ids>  (969) 
[2, 97]

>  <energy_score>  (969) 
1174.7607405300969

>  <distance_score>  (969) 
9.902596686282193

>  <path>  (969) 
/opt/xchem-fragalysis-2/maxwin/BulkDock/SCRATCH/511022/C39461-P2/C39461-P2.minimised.mol

>  <scratch_subdir>  (969) 
/opt/xchem-fragalysis-2/maxwin/BulkDock/SCRATCH/511022/C39461-P2

>  <fragmenstein_runtime>  (969) 
14.70511770248413

>  <fragmenstein_outcome>  (969) 
too moved

>  <fragmenstein_mode>  (969) 
expansion

>  <fragmenstein_error>  (969) 


$$$$
C39461-P97
     RDKit          3D

 44 48  0  0  0  0  0  0  0  0999 V2000
    2.9765  -12.7264   10.0869 O   0  0  0  0  0  0  0  0  0  0  0  0
    2.3106  -12.3649   11.0448 C   0  0  0  0  0  0  0  0  0  0  0  0
    0.6843  -13.3090   11.5374 N   0  0  0  0  0  0  0  0  0  0  0  0
   -0.1725  -15.0100   10.8132 C   0  0  0  0  0  0  0  0  0  0  0  0
    0.4267  -16.4463    9.8006 C   0  0  0  0  0  0  0  0  0  0  0  0
   -0.7425  -17.2240    8.4709 C   0  0  0  0  0  0  0  0  0  0  0  0
   -2.4603  -17.2462    9.2371 N   0  0  0  0  0  0  0  0  0  0  0  0
   -3.7399  -18.6340    9.4284 C   0  0  0  0  0  0  0  0  0  0  0  0
   -5.5631  -18.6017    9.2532 N   0  0  0  0  0  0  0  0  0  0  0  0
   -6.6104  -19.3115   10.8281 C   0  0  0  0  0  0  0  0  0  0  0  0
   -8.1141  -20.1713   10.8004 C   0  0  0  0  0  0  0  0  0  0  0  0
   -8.6292  -21.3435   11.4728 C   0  0  0  0  0  0  0  0  0  0  0  0
   -7.7906  -21.9125   12.4212 C   0  0  0  0  0  0  0  0  0  0  0  0
   -6.4720  -21.1380   12.7325 C   0  0  0  0  0  0  0  0  0  0  0  0
   -5.4145  -20.0138   11.8838 C   0  0  0  0  0  0  0  0  0  0  0  0
   -3.7910  -19.8318   10.9450 O   0  0  0  0  0  0  0  0  0  0  0  0
   -2.0060  -15.5980   10.1973 C   0  0  0  0  0  0  0  0  0  0  0  0
    3.2870  -10.8319   12.0316 C   0  0  0  0  0  0  0  0  0  0  0  0
    3.6752  -10.2636   13.3186 C   0  0  0  0  0  0  0  0  0  0  0  0
    4.1035   -8.5646   13.6543 C   0  0  0  0  0  0  0  0  0  0  0  0
    5.3270   -8.1330   13.9335 C   0  0  0  0  0  0  0  0  0  0  0  0
    6.2136   -7.0649   15.1434 C   0  0  0  0  0  0  0  0  0  0  0  0
    7.2750   -7.6575   14.8287 C   0  0  0  0  0  0  0  0  0  0  0  0
    6.6631   -8.2752   13.7381 N   0  0  0  0  0  0  0  0  0  0  0  0
    5.6062   -9.7012   14.1010 C   0  0  0  0  0  0  0  0  0  0  0  0
    4.8288  -10.9019   13.0382 C   0  0  0  0  0  0  0  0  0  0  0  0
    0.3208  -12.9146   12.4007 H   0  0  0  0  0  0  0  0  0  0  0  0
   -0.1080  -15.4862   11.7914 H   0  0  0  0  0  0  0  0  0  0  0  0
    0.6352  -17.2377   10.5293 H   0  0  0  0  0  0  0  0  0  0  0  0
    1.3656  -16.1993    9.2910 H   0  0  0  0  0  0  0  0  0  0  0  0
   -0.5523  -16.7841    7.5252 H   0  0  0  0  0  0  0  0  0  0  0  0
   -0.4111  -18.2537    8.2273 H   0  0  0  0  0  0  0  0  0  0  0  0
   -8.6131  -20.1173    9.8247 H   0  0  0  0  0  0  0  0  0  0  0  0
   -9.5528  -21.8188   11.1797 H   0  0  0  0  0  0  0  0  0  0  0  0
   -8.1419  -22.7401   12.9931 H   0  0  0  0  0  0  0  0  0  0  0  0
   -7.0570  -20.2845   12.6346 H   0  0  0  0  0  0  0  0  0  0  0  0
   -2.3949  -14.8945    9.5054 H   0  0  0  0  0  0  0  0  0  0  0  0
   -2.7181  -15.4021   10.9962 H   0  0  0  0  0  0  0  0  0  0  0  0
    3.3402  -10.6646   14.2950 H   0  0  0  0  0  0  0  0  0  0  0  0
    3.5518   -8.0988   14.4477 H   0  0  0  0  0  0  0  0  0  0  0  0
    5.9428   -6.4614   16.0157 H   0  0  0  0  0  0  0  0  0  0  0  0
    8.2878   -7.2872   14.9221 H   0  0  0  0  0  0  0  0  0  0  0  0
    7.2557   -8.4232   12.9403 H   0  0  0  0  0  0  0  0  0  0  0  0
    5.2966  -11.8630   13.3787 H   0  0  0  0  0  0  0  0  0  0  0  0
  1  2  2  0
  2  3  1  0
  3  4  1  0
  4  5  1  0
  5  6  1  0
  6  7  1  0
  7  8  1  0
  8  9  2  0
  9 10  1  0
 10 11  2  0
 11 12  1  0
 12 13  2  0
 13 14  1  0
 14 15  2  0
 15 16  1  0
  7 17  1  0
  2 18  1  0
 18 19  2  0
 19 20  1  0
 20 21  2  0
 21 22  1  0
 22 23  2  0
 23 24  1  0
 24 25  1  0
 25 26  2  0
 17  4  1  0
 26 18  1  0
 16  8  1  0
 25 21  1  0
 15 10  1  0
  3 27  1  0
  4 28  1  0
  5 29  1  0
  5 30  1  0
  6 31  1  0
  6 32  1  0
 11 33  1  0
 12 34  1  0
 13 35  1  0
 14 36  1  0
 17 37  1  0
 17 38  1  0
 19 39  1  0
 20 40  1  0
 22 41  1  0
 23 42  1  0
 24 43  1  0
 26 44  1  0
M  END
>  <Energy>  (970) 
2001.1038821224529

>  <compound_id>  (970) 
39461

>  <target_id>  (970) 
1

>  <reference_id>  (970) 
97

>  <inspiration_ids>  (970) 
[2, 97]

>  <energy_score>  (970) 
1956.9802067592732

>  <distance_score>  (970) 
8.92713723211131

>  <path>  (970) 
/opt/xchem-fragalysis-2/maxwin/BulkDock/SCRATCH/511022/C39461-P97/C39461-P97.minimised.mol

>  <scratch_subdir>  (970) 
/opt/xchem-fragalysis-2/maxwin/BulkDock/SCRATCH/511022/C39461-P97

>  <fragmenstein_runtime>  (970) 
27.50242328643799

>  <fragmenstein_outcome>  (970) 
too moved

>  <fragmenstein_mode>  (970) 
expansion

>  <fragmenstein_error>  (970) 


$$$$
C76769-P2
     RDKit          3D

 44 48  0  0  0  0  0  0  0  0999 V2000
    5.9222  -14.0495   13.7679 O   0  0  0  0  0  0  0  0  0  0  0  0
    6.4931  -13.4065   12.9576 C   0  0  0  0  0  0  0  0  0  0  0  0
    6.8448  -13.7561   11.3907 N   0  0  0  0  0  0  0  0  0  0  0  0
    6.3855  -15.0859   10.3676 C   0  0  0  0  0  0  0  0  0  0  0  0
    7.3972  -15.5508    9.1986 C   0  0  0  0  0  0  0  0  0  0  0  0
    6.6717  -16.6846    8.3182 C   0  0  0  0  0  0  0  0  0  0  0  0
    5.4131  -17.0790    8.9749 N   0  0  0  0  0  0  0  0  0  0  0  0
    4.2801  -17.5792    8.3292 C   0  0  0  0  0  0  0  0  0  0  0  0
    3.3348  -16.9218    7.6625 N   0  0  0  0  0  0  0  0  0  0  0  0
    2.2505  -17.7953    7.6085 C   0  0  0  0  0  0  0  0  0  0  0  0
    0.9621  -17.6682    7.0529 C   0  0  0  0  0  0  0  0  0  0  0  0
    0.0565  -18.7399    7.1741 C   0  0  0  0  0  0  0  0  0  0  0  0
    0.4263  -19.9195    7.8306 C   0  0  0  0  0  0  0  0  0  0  0  0
    1.7040  -20.0617    8.3950 C   0  0  0  0  0  0  0  0  0  0  0  0
    2.5721  -18.9744    8.2541 C   0  0  0  0  0  0  0  0  0  0  0  0
    3.8607  -18.8460    8.7186 O   0  0  0  0  0  0  0  0  0  0  0  0
    5.0704  -16.0807    9.9883 C   0  0  0  0  0  0  0  0  0  0  0  0
    6.8271  -11.7761   13.6214 C   0  0  0  0  0  0  0  0  0  0  0  0
    8.6646  -11.4621   14.2508 C   0  0  0  0  0  0  0  0  0  0  0  0
    9.8354  -10.8714   14.8107 C   0  0  0  0  0  0  0  0  0  0  0  0
    9.3234  -10.0775   15.6937 C   0  0  0  0  0  0  0  0  0  0  0  0
    8.0184   -9.6589   15.3415 C   0  0  0  0  0  0  0  0  0  0  0  0
    7.0884   -8.0186   14.7800 C   0  0  0  0  0  0  0  0  0  0  0  0
    8.1811   -7.3415   14.4556 C   0  0  0  0  0  0  0  0  0  0  0  0
    6.9118   -8.2537   13.4829 N   0  0  0  0  0  0  0  0  0  0  0  0
    7.0273  -10.0757   13.9328 C   0  0  0  0  0  0  0  0  0  0  0  0
    7.4085  -13.0520   11.0124 H   0  0  0  0  0  0  0  0  0  0  0  0
    5.8148  -14.3315    9.8485 H   0  0  0  0  0  0  0  0  0  0  0  0
    7.7366  -14.7092    8.5873 H   0  0  0  0  0  0  0  0  0  0  0  0
    8.3262  -15.9804    9.5886 H   0  0  0  0  0  0  0  0  0  0  0  0
    7.3318  -17.5581    8.2665 H   0  0  0  0  0  0  0  0  0  0  0  0
    6.5166  -16.3490    7.2872 H   0  0  0  0  0  0  0  0  0  0  0  0
    0.6825  -16.7525    6.5475 H   0  0  0  0  0  0  0  0  0  0  0  0
   -0.9490  -18.6425    6.7726 H   0  0  0  0  0  0  0  0  0  0  0  0
   -0.2972  -20.7252    7.9331 H   0  0  0  0  0  0  0  0  0  0  0  0
    2.0033  -20.9556    8.9270 H   0  0  0  0  0  0  0  0  0  0  0  0
    4.2701  -15.4640    9.5469 H   0  0  0  0  0  0  0  0  0  0  0  0
    4.6646  -16.6956   10.7962 H   0  0  0  0  0  0  0  0  0  0  0  0
    8.9810  -12.4515   14.8355 H   0  0  0  0  0  0  0  0  0  0  0  0
   10.7740  -11.3248   15.0479 H   0  0  0  0  0  0  0  0  0  0  0  0
    9.7747   -9.9838   16.6421 H   0  0  0  0  0  0  0  0  0  0  0  0
    6.4447   -7.3013   15.3160 H   0  0  0  0  0  0  0  0  0  0  0  0
    8.4034   -6.3081   14.4907 H   0  0  0  0  0  0  0  0  0  0  0  0
    7.1672   -8.1106   12.5271 H   0  0  0  0  0  0  0  0  0  0  0  0
  1  2  2  0
  2  3  1  0
  3  4  1  0
  4  5  1  0
  5  6  1  0
  6  7  1  0
  7  8  1  0
  8  9  2  0
  9 10  1  0
 10 11  2  0
 11 12  1  0
 12 13  2  0
 13 14  1  0
 14 15  2  0
 15 16  1  0
  7 17  1  0
  2 18  1  0
 18 19  2  0
 19 20  1  0
 20 21  2  0
 21 22  1  0
 22 23  1  0
 23 24  2  0
 24 25  1  0
 25 26  1  0
 17  4  1  0
 26 18  1  0
 16  8  1  0
 26 22  2  0
 15 10  1  0
  3 27  1  0
  4 28  1  0
  5 29  1  0
  5 30  1  0
  6 31  1  0
  6 32  1  0
 11 33  1  0
 12 34  1  0
 13 35  1  0
 14 36  1  0
 17 37  1  0
 17 38  1  0
 19 39  1  0
 20 40  1  0
 21 41  1  0
 23 42  1  0
 24 43  1  0
 25 44  1  0
M  END
>  <Energy>  (971) 
880.64307192071897

>  <compound_id>  (971) 
76769

>  <target_id>  (971) 
1

>  <reference_id>  (971) 
2

>  <inspiration_ids>  (971) 
[2, 97]

>  <energy_score>  (971) 
829.2728759876558

>  <distance_score>  (971) 
10.964841409358794

>  <path>  (971) 
/opt/xchem-fragalysis-2/maxwin/BulkDock/SCRATCH/511022/C76769-P2/C76769-P2.minimised.mol

>  <scratch_subdir>  (971) 
/opt/xchem-fragalysis-2/maxwin/BulkDock/SCRATCH/511022/C76769-P2

>  <fragmenstein_runtime>  (971) 
22.98966097831726

>  <fragmenstein_outcome>  (971) 
too moved

>  <fragmenstein_mode>  (971) 
expansion

>  <fragmenstein_error>  (971) 


$$$$
C76769-P97
     RDKit          3D

 44 48  0  0  0  0  0  0  0  0999 V2000
    4.2837  -11.1420   13.8551 O   0  0  0  0  0  0  0  0  0  0  0  0
    3.6764  -10.3951   13.0634 C   0  0  0  0  0  0  0  0  0  0  0  0
    2.2925  -10.9074   11.7432 N   0  0  0  0  0  0  0  0  0  0  0  0
    1.3477  -12.6709   11.3450 C   0  0  0  0  0  0  0  0  0  0  0  0
    0.7208  -14.2504   12.2310 C   0  0  0  0  0  0  0  0  0  0  0  0
    0.0131  -15.6070   11.1939 C   0  0  0  0  0  0  0  0  0  0  0  0
   -1.3164  -15.0773   10.5978 N   0  0  0  0  0  0  0  0  0  0  0  0
   -2.5266  -16.1336    9.5968 C   0  0  0  0  0  0  0  0  0  0  0  0
   -3.5314  -16.2324    8.5727 N   0  0  0  0  0  0  0  0  0  0  0  0
   -4.6439  -17.5750    8.1879 C   0  0  0  0  0  0  0  0  0  0  0  0
   -6.4439  -18.2036    8.3861 C   0  0  0  0  0  0  0  0  0  0  0  0
   -7.7834  -19.1829    9.1613 C   0  0  0  0  0  0  0  0  0  0  0  0
   -7.5849  -19.6128   10.4550 C   0  0  0  0  0  0  0  0  0  0  0  0
   -6.5291  -18.6467   10.4223 C   0  0  0  0  0  0  0  0  0  0  0  0
   -4.9070  -18.3685    9.1942 C   0  0  0  0  0  0  0  0  0  0  0  0
   -3.1415  -17.8669    9.6451 O   0  0  0  0  0  0  0  0  0  0  0  0
   -0.4641  -13.3094   11.0609 C   0  0  0  0  0  0  0  0  0  0  0  0
    4.2036   -8.4702   13.4339 C   0  0  0  0  0  0  0  0  0  0  0  0
    5.4674   -8.3474   13.9566 C   0  0  0  0  0  0  0  0  0  0  0  0
    6.2488   -7.3978   14.6941 C   0  0  0  0  0  0  0  0  0  0  0  0
    5.5409   -6.2432   15.4777 C   0  0  0  0  0  0  0  0  0  0  0  0
    4.3505   -6.0461   14.6806 C   0  0  0  0  0  0  0  0  0  0  0  0
    3.6216   -4.8231   14.4567 C   0  0  0  0  0  0  0  0  0  0  0  0
    3.5563   -4.6794   13.0860 C   0  0  0  0  0  0  0  0  0  0  0  0
    4.0853   -5.8023   12.4620 N   0  0  0  0  0  0  0  0  0  0  0  0
    4.4183   -6.8785   13.3563 C   0  0  0  0  0  0  0  0  0  0  0  0
    1.9151  -10.0842   11.2938 H   0  0  0  0  0  0  0  0  0  0  0  0
    2.1126  -12.9634   10.6126 H   0  0  0  0  0  0  0  0  0  0  0  0
    0.0592  -14.0322   13.0892 H   0  0  0  0  0  0  0  0  0  0  0  0
    1.4213  -14.7391   12.8048 H   0  0  0  0  0  0  0  0  0  0  0  0
   -0.0361  -16.5183   11.7664 H   0  0  0  0  0  0  0  0  0  0  0  0
    0.7293  -15.8629   10.4074 H   0  0  0  0  0  0  0  0  0  0  0  0
   -7.3478  -17.7125    7.8871 H   0  0  0  0  0  0  0  0  0  0  0  0
   -8.7392  -19.4548    8.5945 H   0  0  0  0  0  0  0  0  0  0  0  0
   -8.2123  -20.0906   11.1725 H   0  0  0  0  0  0  0  0  0  0  0  0
   -6.4196  -18.3659   11.5507 H   0  0  0  0  0  0  0  0  0  0  0  0
   -0.7417  -12.3748   10.5643 H   0  0  0  0  0  0  0  0  0  0  0  0
   -0.6639  -12.9661   12.0530 H   0  0  0  0  0  0  0  0  0  0  0  0
    5.6337   -9.4268   14.1434 H   0  0  0  0  0  0  0  0  0  0  0  0
    7.2555   -7.7063   14.7347 H   0  0  0  0  0  0  0  0  0  0  0  0
    5.9506   -5.7076   16.2998 H   0  0  0  0  0  0  0  0  0  0  0  0
    3.4582   -4.0258   15.1697 H   0  0  0  0  0  0  0  0  0  0  0  0
    3.2332   -3.8440   12.4791 H   0  0  0  0  0  0  0  0  0  0  0  0
    4.2195   -5.8679   11.4775 H   0  0  0  0  0  0  0  0  0  0  0  0
  1  2  2  0
  2  3  1  0
  3  4  1  0
  4  5  1  0
  5  6  1  0
  6  7  1  0
  7  8  1  0
  8  9  2  0
  9 10  1  0
 10 11  2  0
 11 12  1  0
 12 13  2  0
 13 14  1  0
 14 15  2  0
 15 16  1  0
  7 17  1  0
  2 18  1  0
 18 19  2  0
 19 20  1  0
 20 21  2  0
 21 22  1  0
 22 23  1  0
 23 24  2  0
 24 25  1  0
 25 26  1  0
 17  4  1  0
 26 18  1  0
 16  8  1  0
 26 22  2  0
 15 10  1  0
  3 27  1  0
  4 28  1  0
  5 29  1  0
  5 30  1  0
  6 31  1  0
  6 32  1  0
 11 33  1  0
 12 34  1  0
 13 35  1  0
 14 36  1  0
 17 37  1  0
 17 38  1  0
 19 39  1  0
 20 40  1  0
 21 41  1  0
 23 42  1  0
 24 43  1  0
 25 44  1  0
M  END
>  <Energy>  (972) 
1791.4243107793816

>  <compound_id>  (972) 
76769

>  <target_id>  (972) 
1

>  <reference_id>  (972) 
97

>  <inspiration_ids>  (972) 
[2, 97]

>  <energy_score>  (972) 
1740.0541148463412

>  <distance_score>  (972) 
8.652282985194066

>  <path>  (972) 
/opt/xchem-fragalysis-2/maxwin/BulkDock/SCRATCH/511022/C76769-P97/C76769-P97.minimised.mol

>  <scratch_subdir>  (972) 
/opt/xchem-fragalysis-2/maxwin/BulkDock/SCRATCH/511022/C76769-P97

>  <fragmenstein_runtime>  (972) 
24.193993091583252

>  <fragmenstein_outcome>  (972) 
too moved

>  <fragmenstein_mode>  (972) 
expansion

>  <fragmenstein_error>  (972) 


$$$$
C76770-P2
     RDKit          3D

 45 49  0  0  0  0  0  0  0  0999 V2000
    3.9444  -16.4989    9.7937 O   0  0  0  0  0  0  0  0  0  0  0  0
    3.2466  -15.6507    9.2991 C   0  0  0  0  0  0  0  0  0  0  0  0
    3.8736  -13.8414    9.8819 C   0  0  0  0  0  0  0  0  0  0  0  0
    5.2899  -14.3384   10.2628 C   0  0  0  0  0  0  0  0  0  0  0  0
    6.2889  -14.1485   11.4441 C   0  0  0  0  0  0  0  0  0  0  0  0
    6.3063  -13.4152   12.7473 C   0  0  0  0  0  0  0  0  0  0  0  0
    5.2306  -12.4259   12.8466 C   0  0  0  0  0  0  0  0  0  0  0  0
    5.1940  -11.1273   13.4415 C   0  0  0  0  0  0  0  0  0  0  0  0
    4.0595  -10.4558   13.0214 C   0  0  0  0  0  0  0  0  0  0  0  0
    3.4888  -11.0417   11.3404 N   0  0  0  0  0  0  0  0  0  0  0  0
    4.1879  -12.6721   11.2284 C   0  0  0  0  0  0  0  0  0  0  0  0
    1.9964  -16.2249    8.0862 N   0  0  0  0  0  0  0  0  0  0  0  0
    1.7270  -17.6284    7.4661 C   0  0  0  0  0  0  0  0  0  0  0  0
    0.9989  -18.9371    7.9753 C   0  0  0  0  0  0  0  0  0  0  0  0
   -0.5559  -19.0852    7.6523 C   0  0  0  0  0  0  0  0  0  0  0  0
   -1.3674  -17.8219    8.0656 C   0  0  0  0  0  0  0  0  0  0  0  0
   -3.1748  -18.2415    8.7701 C   0  0  0  0  0  0  0  0  0  0  0  0
   -4.2380  -19.3507    8.9132 N   0  0  0  0  0  0  0  0  0  0  0  0
   -6.1811  -18.8379    8.6527 C   0  0  0  0  0  0  0  0  0  0  0  0
   -7.7012  -19.7565    8.8510 C   0  0  0  0  0  0  0  0  0  0  0  0
   -8.1144  -20.5557    9.8696 C   0  0  0  0  0  0  0  0  0  0  0  0
   -7.4411  -20.0981   10.9085 C   0  0  0  0  0  0  0  0  0  0  0  0
   -6.6979  -18.8681   10.6511 C   0  0  0  0  0  0  0  0  0  0  0  0
   -6.1410  -17.7877    9.2340 C   0  0  0  0  0  0  0  0  0  0  0  0
   -4.4804  -17.2430    8.4733 O   0  0  0  0  0  0  0  0  0  0  0  0
    0.2602  -16.7124    8.5797 C   0  0  0  0  0  0  0  0  0  0  0  0
    5.6981  -15.1886    9.7052 H   0  0  0  0  0  0  0  0  0  0  0  0
    7.2716  -14.3994   11.0345 H   0  0  0  0  0  0  0  0  0  0  0  0
    6.7428  -13.6776   13.6665 H   0  0  0  0  0  0  0  0  0  0  0  0
    5.8537  -10.7231   14.1402 H   0  0  0  0  0  0  0  0  0  0  0  0
    3.2589  -10.4759   13.7049 H   0  0  0  0  0  0  0  0  0  0  0  0
    2.4967  -10.9710   11.2054 H   0  0  0  0  0  0  0  0  0  0  0  0
    2.7669  -17.9626    7.3336 H   0  0  0  0  0  0  0  0  0  0  0  0
    1.3845  -17.4250    6.4386 H   0  0  0  0  0  0  0  0  0  0  0  0
    1.4747  -19.7829    7.4592 H   0  0  0  0  0  0  0  0  0  0  0  0
    1.2213  -19.0945    9.0354 H   0  0  0  0  0  0  0  0  0  0  0  0
   -0.6666  -19.2364    6.5714 H   0  0  0  0  0  0  0  0  0  0  0  0
   -0.9469  -19.9858    8.1381 H   0  0  0  0  0  0  0  0  0  0  0  0
   -1.7331  -17.3788    7.1421 H   0  0  0  0  0  0  0  0  0  0  0  0
   -8.4980  -19.4649    8.1414 H   0  0  0  0  0  0  0  0  0  0  0  0
   -8.9258  -21.2535    9.8856 H   0  0  0  0  0  0  0  0  0  0  0  0
   -7.4525  -20.5449   11.8793 H   0  0  0  0  0  0  0  0  0  0  0  0
   -6.3577  -18.4888   11.6551 H   0  0  0  0  0  0  0  0  0  0  0  0
    0.1494  -16.1459    9.5165 H   0  0  0  0  0  0  0  0  0  0  0  0
    0.0286  -16.2491    7.6092 H   0  0  0  0  0  0  0  0  0  0  0  0
  1  2  2  0
  2  3  1  0
  3  4  2  0
  4  5  1  0
  5  6  2  0
  6  7  1  0
  7  8  1  0
  8  9  2  0
  9 10  1  0
 10 11  1  0
  2 12  1  0
 12 13  1  0
 13 14  1  0
 14 15  1  0
 15 16  1  0
 16 17  1  0
 17 18  2  0
 18 19  1  0
 19 20  2  0
 20 21  1  0
 21 22  2  0
 22 23  1  0
 23 24  2  0
 24 25  1  0
 16 26  1  0
 11  3  1  0
 26 12  1  0
 11  7  2  0
 25 17  1  0
 24 19  1  0
  4 27  1  0
  5 28  1  0
  6 29  1  0
  8 30  1  0
  9 31  1  0
 10 32  1  0
 13 33  1  0
 13 34  1  0
 14 35  1  0
 14 36  1  0
 15 37  1  0
 15 38  1  0
 16 39  1  0
 20 40  1  0
 21 41  1  0
 22 42  1  0
 23 43  1  0
 26 44  1  0
 26 45  1  0
M  END
>  <Energy>  (973) 
1474.7920764526646

>  <compound_id>  (973) 
76770

>  <target_id>  (973) 
1

>  <reference_id>  (973) 
2

>  <inspiration_ids>  (973) 
[2, 97]

>  <energy_score>  (973) 
1393.1067421071812

>  <distance_score>  (973) 
10.8804344014213

>  <path>  (973) 
/opt/xchem-fragalysis-2/maxwin/BulkDock/SCRATCH/511022/C76770-P2/C76770-P2.minimised.mol

>  <scratch_subdir>  (973) 
/opt/xchem-fragalysis-2/maxwin/BulkDock/SCRATCH/511022/C76770-P2

>  <fragmenstein_runtime>  (973) 
26.420610904693604

>  <fragmenstein_outcome>  (973) 
too moved

>  <fragmenstein_mode>  (973) 
expansion

>  <fragmenstein_error>  (973) 


$$$$
C76770-P97
     RDKit          3D

 45 49  0  0  0  0  0  0  0  0999 V2000
    5.6952   -7.6411    9.2802 O   0  0  0  0  0  0  0  0  0  0  0  0
    5.2936   -8.2211   10.2725 C   0  0  0  0  0  0  0  0  0  0  0  0
    6.5757   -7.6729   12.0609 C   0  0  0  0  0  0  0  0  0  0  0  0
    5.9023   -7.6391   13.4255 C   0  0  0  0  0  0  0  0  0  0  0  0
    6.6709   -7.6931   14.6248 C   0  0  0  0  0  0  0  0  0  0  0  0
    8.2518   -7.3113   14.8565 C   0  0  0  0  0  0  0  0  0  0  0  0
    8.4591   -6.0617   14.5246 C   0  0  0  0  0  0  0  0  0  0  0  0
   10.2031   -4.9385   14.5137 C   0  0  0  0  0  0  0  0  0  0  0  0
    9.5964   -3.8342   14.8543 C   0  0  0  0  0  0  0  0  0  0  0  0
    8.5845   -5.2639   14.2076 N   0  0  0  0  0  0  0  0  0  0  0  0
    8.0031   -6.6208   12.8235 C   0  0  0  0  0  0  0  0  0  0  0  0
    3.8049   -9.6715   10.1296 N   0  0  0  0  0  0  0  0  0  0  0  0
    2.8949  -10.4961    8.5049 C   0  0  0  0  0  0  0  0  0  0  0  0
    1.7237  -10.5873    7.4371 C   0  0  0  0  0  0  0  0  0  0  0  0
    1.7665  -12.0625    7.4186 C   0  0  0  0  0  0  0  0  0  0  0  0
    2.7791  -12.7519    9.0121 C   0  0  0  0  0  0  0  0  0  0  0  0
    2.7651  -14.6189    9.1012 C   0  0  0  0  0  0  0  0  0  0  0  0
    1.9466  -15.2731    8.2375 N   0  0  0  0  0  0  0  0  0  0  0  0
    2.0357  -16.5985    8.5029 C   0  0  0  0  0  0  0  0  0  0  0  0
    1.2351  -17.6811    8.1135 C   0  0  0  0  0  0  0  0  0  0  0  0
    1.5461  -18.9384    8.6393 C   0  0  0  0  0  0  0  0  0  0  0  0
    2.6454  -19.0996    9.4890 C   0  0  0  0  0  0  0  0  0  0  0  0
    3.4948  -18.0225    9.8147 C   0  0  0  0  0  0  0  0  0  0  0  0
    3.1421  -16.7784    9.2997 C   0  0  0  0  0  0  0  0  0  0  0  0
    3.7541  -15.5180    9.4655 O   0  0  0  0  0  0  0  0  0  0  0  0
    3.8308  -11.4976    9.8724 C   0  0  0  0  0  0  0  0  0  0  0  0
    4.8171   -7.6343   13.5031 H   0  0  0  0  0  0  0  0  0  0  0  0
    6.1939   -6.9123   15.3168 H   0  0  0  0  0  0  0  0  0  0  0  0
    9.1283   -7.8597   15.2487 H   0  0  0  0  0  0  0  0  0  0  0  0
   10.9714   -5.0451   15.2968 H   0  0  0  0  0  0  0  0  0  0  0  0
    8.8222   -3.0616   14.8222 H   0  0  0  0  0  0  0  0  0  0  0  0
    8.1260   -4.2537   14.0063 H   0  0  0  0  0  0  0  0  0  0  0  0
    3.1529   -9.8601    7.5186 H   0  0  0  0  0  0  0  0  0  0  0  0
    3.7974  -10.9053    8.1977 H   0  0  0  0  0  0  0  0  0  0  0  0
    0.8815   -9.9111    7.4155 H   0  0  0  0  0  0  0  0  0  0  0  0
    1.9649  -10.2634    6.3909 H   0  0  0  0  0  0  0  0  0  0  0  0
    1.0040  -12.7976    7.0987 H   0  0  0  0  0  0  0  0  0  0  0  0
    1.9918  -12.1072    6.2983 H   0  0  0  0  0  0  0  0  0  0  0  0
    2.3000  -12.8131   10.0031 H   0  0  0  0  0  0  0  0  0  0  0  0
    0.3866  -17.5445    7.4523 H   0  0  0  0  0  0  0  0  0  0  0  0
    0.9173  -19.7939    8.3962 H   0  0  0  0  0  0  0  0  0  0  0  0
    2.8597  -20.0875    9.8942 H   0  0  0  0  0  0  0  0  0  0  0  0
    4.3557  -18.1501   10.4575 H   0  0  0  0  0  0  0  0  0  0  0  0
    4.5498  -11.8533    9.0602 H   0  0  0  0  0  0  0  0  0  0  0  0
    3.6852  -11.8634   10.8769 H   0  0  0  0  0  0  0  0  0  0  0  0
  1  2  2  0
  2  3  1  0
  3  4  2  0
  4  5  1  0
  5  6  2  0
  6  7  1  0
  7  8  1  0
  8  9  2  0
  9 10  1  0
 10 11  1  0
  2 12  1  0
 12 13  1  0
 13 14  1  0
 14 15  1  0
 15 16  1  0
 16 17  1  0
 17 18  2  0
 18 19  1  0
 19 20  2  0
 20 21  1  0
 21 22  2  0
 22 23  1  0
 23 24  2  0
 24 25  1  0
 16 26  1  0
 11  3  1  0
 26 12  1  0
 11  7  2  0
 25 17  1  0
 24 19  1  0
  4 27  1  0
  5 28  1  0
  6 29  1  0
  8 30  1  0
  9 31  1  0
 10 32  1  0
 13 33  1  0
 13 34  1  0
 14 35  1  0
 14 36  1  0
 15 37  1  0
 15 38  1  0
 16 39  1  0
 20 40  1  0
 21 41  1  0
 22 42  1  0
 23 43  1  0
 26 44  1  0
 26 45  1  0
M  END
>  <Energy>  (974) 
2066.5900483354403

>  <compound_id>  (974) 
76770

>  <target_id>  (974) 
1

>  <reference_id>  (974) 
97

>  <inspiration_ids>  (974) 
[2, 97]

>  <energy_score>  (974) 
1984.9047139899897

>  <distance_score>  (974) 
10.419974366451417

>  <path>  (974) 
/opt/xchem-fragalysis-2/maxwin/BulkDock/SCRATCH/511022/C76770-P97/C76770-P97.minimised.mol

>  <scratch_subdir>  (974) 
/opt/xchem-fragalysis-2/maxwin/BulkDock/SCRATCH/511022/C76770-P97

>  <fragmenstein_runtime>  (974) 
17.061887741088867

>  <fragmenstein_outcome>  (974) 
too moved

>  <fragmenstein_mode>  (974) 
expansion

>  <fragmenstein_error>  (974) 


$$$$
C76771-P2
     RDKit          3D

 45 49  0  0  0  0  0  0  0  0999 V2000
    4.7888  -12.0777   14.3045 O   0  0  0  0  0  0  0  0  0  0  0  0
    4.3383  -11.0444   13.9347 C   0  0  0  0  0  0  0  0  0  0  0  0
    5.3674  -10.0634   13.9324 C   0  0  0  0  0  0  0  0  0  0  0  0
    6.5465  -10.8056   13.9435 C   0  0  0  0  0  0  0  0  0  0  0  0
    8.4468  -10.9522   14.3644 C   0  0  0  0  0  0  0  0  0  0  0  0
    9.0592  -10.7203   15.5184 C   0  0  0  0  0  0  0  0  0  0  0  0
    8.2219   -9.7037   15.2837 C   0  0  0  0  0  0  0  0  0  0  0  0
    9.2242   -8.0844   15.1337 C   0  0  0  0  0  0  0  0  0  0  0  0
    8.2364   -7.2511   14.6066 C   0  0  0  0  0  0  0  0  0  0  0  0
    6.8669   -7.9616   14.1287 N   0  0  0  0  0  0  0  0  0  0  0  0
    6.8970   -9.5323   13.8446 C   0  0  0  0  0  0  0  0  0  0  0  0
    2.5262  -10.9496   13.6289 N   0  0  0  0  0  0  0  0  0  0  0  0
    1.4956  -11.2802   11.9915 C   0  0  0  0  0  0  0  0  0  0  0  0
   -0.1160  -12.4156   12.1279 C   0  0  0  0  0  0  0  0  0  0  0  0
   -0.5558  -13.9516   13.4306 C   0  0  0  0  0  0  0  0  0  0  0  0
   -1.5856  -14.4931   15.1324 C   0  0  0  0  0  0  0  0  0  0  0  0
   -2.9059  -14.9576   15.2430 N   0  0  0  0  0  0  0  0  0  0  0  0
   -3.1964  -15.3435   16.4808 C   0  0  0  0  0  0  0  0  0  0  0  0
   -4.3655  -15.9216   16.9681 C   0  0  0  0  0  0  0  0  0  0  0  0
   -4.3800  -16.3325   18.2949 C   0  0  0  0  0  0  0  0  0  0  0  0
   -3.2603  -16.1058   19.1017 C   0  0  0  0  0  0  0  0  0  0  0  0
   -2.1126  -15.4394   18.6228 C   0  0  0  0  0  0  0  0  0  0  0  0
   -2.1272  -15.0709   17.2851 C   0  0  0  0  0  0  0  0  0  0  0  0
   -1.1270  -14.4704   16.5348 O   0  0  0  0  0  0  0  0  0  0  0  0
    0.7703  -13.5129   13.5249 C   0  0  0  0  0  0  0  0  0  0  0  0
    1.2520  -12.1618   13.9297 C   0  0  0  0  0  0  0  0  0  0  0  0
    6.3512  -11.8535   13.4385 H   0  0  0  0  0  0  0  0  0  0  0  0
    9.2309  -11.4224   13.7958 H   0  0  0  0  0  0  0  0  0  0  0  0
   10.0900  -10.7484   15.7964 H   0  0  0  0  0  0  0  0  0  0  0  0
   10.0578   -7.6152   15.4925 H   0  0  0  0  0  0  0  0  0  0  0  0
    8.2307   -6.2226   14.8049 H   0  0  0  0  0  0  0  0  0  0  0  0
    6.0242   -7.5363   13.7956 H   0  0  0  0  0  0  0  0  0  0  0  0
    1.0462  -10.3747   11.5745 H   0  0  0  0  0  0  0  0  0  0  0  0
    2.1905  -11.5825   11.1801 H   0  0  0  0  0  0  0  0  0  0  0  0
   -0.7596  -11.5544   12.2884 H   0  0  0  0  0  0  0  0  0  0  0  0
   -0.2067  -12.8702   11.1539 H   0  0  0  0  0  0  0  0  0  0  0  0
   -0.5034  -14.8104   12.7479 H   0  0  0  0  0  0  0  0  0  0  0  0
   -5.2090  -16.0230   16.3049 H   0  0  0  0  0  0  0  0  0  0  0  0
   -5.2633  -16.8114   18.7078 H   0  0  0  0  0  0  0  0  0  0  0  0
   -3.2805  -16.4286   20.1417 H   0  0  0  0  0  0  0  0  0  0  0  0
   -1.2511  -15.2527   19.2520 H   0  0  0  0  0  0  0  0  0  0  0  0
    1.1355  -13.9503   12.6021 H   0  0  0  0  0  0  0  0  0  0  0  0
   -0.0629  -12.8608   13.7225 H   0  0  0  0  0  0  0  0  0  0  0  0
    1.7470  -12.6458   14.8169 H   0  0  0  0  0  0  0  0  0  0  0  0
    0.8301  -11.7199   14.6780 H   0  0  0  0  0  0  0  0  0  0  0  0
  1  2  2  0
  2  3  1  0
  3  4  2  0
  4  5  1  0
  5  6  2  0
  6  7  1  0
  7  8  1  0
  8  9  2  0
  9 10  1  0
 10 11  1  0
  2 12  1  0
 12 13  1  0
 13 14  1  0
 14 15  1  0
 15 16  1  0
 16 17  2  0
 17 18  1  0
 18 19  2  0
 19 20  1  0
 20 21  2  0
 21 22  1  0
 22 23  2  0
 23 24  1  0
 15 25  1  0
 25 26  1  0
 11  3  1  0
 26 12  1  0
 11  7  2  0
 24 16  1  0
 23 18  1  0
  4 27  1  0
  5 28  1  0
  6 29  1  0
  8 30  1  0
  9 31  1  0
 10 32  1  0
 13 33  1  0
 13 34  1  0
 14 35  1  0
 14 36  1  0
 15 37  1  0
 19 38  1  0
 20 39  1  0
 21 40  1  0
 22 41  1  0
 25 42  1  0
 25 43  1  0
 26 44  1  0
 26 45  1  0
M  END
>  <Energy>  (975) 
1367.8836773231474

>  <compound_id>  (975) 
76771

>  <target_id>  (975) 
1

>  <reference_id>  (975) 
2

>  <inspiration_ids>  (975) 
[2, 97]

>  <energy_score>  (975) 
1302.1048700166461

>  <distance_score>  (975) 
11.210596025235263

>  <path>  (975) 
/opt/xchem-fragalysis-2/maxwin/BulkDock/SCRATCH/511022/C76771-P2/C76771-P2.minimised.mol

>  <scratch_subdir>  (975) 
/opt/xchem-fragalysis-2/maxwin/BulkDock/SCRATCH/511022/C76771-P2

>  <fragmenstein_runtime>  (975) 
20.785160064697266

>  <fragmenstein_outcome>  (975) 
too moved

>  <fragmenstein_mode>  (975) 
expansion

>  <fragmenstein_error>  (975) 


$$$$
C76771-P97
     RDKit          3D

 45 49  0  0  0  0  0  0  0  0999 V2000
    7.4033  -15.7546    6.6040 O   0  0  0  0  0  0  0  0  0  0  0  0
    7.2521  -15.1177    5.5885 C   0  0  0  0  0  0  0  0  0  0  0  0
    7.9430  -13.6933    5.5950 C   0  0  0  0  0  0  0  0  0  0  0  0
    7.7376  -12.7259    4.5961 C   0  0  0  0  0  0  0  0  0  0  0  0
    8.2574  -11.4156    4.6682 C   0  0  0  0  0  0  0  0  0  0  0  0
    9.0573  -10.9987    5.7289 C   0  0  0  0  0  0  0  0  0  0  0  0
    9.3637  -11.9337    6.7218 C   0  0  0  0  0  0  0  0  0  0  0  0
   10.2210  -11.8681    7.8540 C   0  0  0  0  0  0  0  0  0  0  0  0
   10.1928  -13.1082    8.4344 C   0  0  0  0  0  0  0  0  0  0  0  0
    9.2338  -13.8547    7.7989 N   0  0  0  0  0  0  0  0  0  0  0  0
    8.7955  -13.2230    6.6531 C   0  0  0  0  0  0  0  0  0  0  0  0
    6.4961  -15.4372    4.3682 N   0  0  0  0  0  0  0  0  0  0  0  0
    5.0450  -14.9096    4.4786 C   0  0  0  0  0  0  0  0  0  0  0  0
    3.6419  -15.6100    4.6283 C   0  0  0  0  0  0  0  0  0  0  0  0
    3.6905  -16.8456    5.4995 C   0  0  0  0  0  0  0  0  0  0  0  0
    2.3750  -17.6469    5.5220 C   0  0  0  0  0  0  0  0  0  0  0  0
    1.4869  -17.8675    4.5609 N   0  0  0  0  0  0  0  0  0  0  0  0
    0.4884  -18.6134    5.1680 C   0  0  0  0  0  0  0  0  0  0  0  0
   -0.6835  -19.1932    4.6566 C   0  0  0  0  0  0  0  0  0  0  0  0
   -1.4766  -19.9674    5.5174 C   0  0  0  0  0  0  0  0  0  0  0  0
   -1.1462  -20.1167    6.8698 C   0  0  0  0  0  0  0  0  0  0  0  0
   -0.0016  -19.5139    7.4055 C   0  0  0  0  0  0  0  0  0  0  0  0
    0.7874  -18.7954    6.5067 C   0  0  0  0  0  0  0  0  0  0  0  0
    1.9844  -18.1678    6.7469 O   0  0  0  0  0  0  0  0  0  0  0  0
    4.9445  -17.5641    4.9923 C   0  0  0  0  0  0  0  0  0  0  0  0
    5.7717  -16.7010    3.9610 C   0  0  0  0  0  0  0  0  0  0  0  0
    7.1279  -12.9826    3.7331 H   0  0  0  0  0  0  0  0  0  0  0  0
    8.0351  -10.7148    3.8663 H   0  0  0  0  0  0  0  0  0  0  0  0
    9.4659   -9.9943    5.7642 H   0  0  0  0  0  0  0  0  0  0  0  0
   10.8199  -11.0259    8.1703 H   0  0  0  0  0  0  0  0  0  0  0  0
   10.7186  -13.5103    9.2886 H   0  0  0  0  0  0  0  0  0  0  0  0
    8.9261  -14.7841    8.0564 H   0  0  0  0  0  0  0  0  0  0  0  0
    5.0840  -14.1185    5.2133 H   0  0  0  0  0  0  0  0  0  0  0  0
    4.9489  -14.3293    3.5436 H   0  0  0  0  0  0  0  0  0  0  0  0
    2.9099  -14.8873    5.0073 H   0  0  0  0  0  0  0  0  0  0  0  0
    3.2713  -15.8727    3.6262 H   0  0  0  0  0  0  0  0  0  0  0  0
    3.8829  -16.5294    6.5330 H   0  0  0  0  0  0  0  0  0  0  0  0
   -0.9343  -19.0821    3.6078 H   0  0  0  0  0  0  0  0  0  0  0  0
   -2.3513  -20.4729    5.1147 H   0  0  0  0  0  0  0  0  0  0  0  0
   -1.7798  -20.7243    7.5126 H   0  0  0  0  0  0  0  0  0  0  0  0
    0.2795  -19.6301    8.4450 H   0  0  0  0  0  0  0  0  0  0  0  0
    4.6737  -18.5083    4.5037 H   0  0  0  0  0  0  0  0  0  0  0  0
    5.5865  -17.8250    5.8425 H   0  0  0  0  0  0  0  0  0  0  0  0
    6.6231  -17.3583    3.7243 H   0  0  0  0  0  0  0  0  0  0  0  0
    5.2847  -16.5967    2.9760 H   0  0  0  0  0  0  0  0  0  0  0  0
  1  2  2  0
  2  3  1  0
  3  4  2  0
  4  5  1  0
  5  6  2  0
  6  7  1  0
  7  8  1  0
  8  9  2  0
  9 10  1  0
 10 11  1  0
  2 12  1  0
 12 13  1  0
 13 14  1  0
 14 15  1  0
 15 16  1  0
 16 17  2  0
 17 18  1  0
 18 19  2  0
 19 20  1  0
 20 21  2  0
 21 22  1  0
 22 23  2  0
 23 24  1  0
 15 25  1  0
 25 26  1  0
 11  3  1  0
 26 12  1  0
 11  7  2  0
 24 16  1  0
 23 18  1  0
  4 27  1  0
  5 28  1  0
  6 29  1  0
  8 30  1  0
  9 31  1  0
 10 32  1  0
 13 33  1  0
 13 34  1  0
 14 35  1  0
 14 36  1  0
 15 37  1  0
 19 38  1  0
 20 39  1  0
 21 40  1  0
 22 41  1  0
 25 42  1  0
 25 43  1  0
 26 44  1  0
 26 45  1  0
M  END
>  <Energy>  (976) 
128.43563200019685

>  <compound_id>  (976) 
76771

>  <target_id>  (976) 
1

>  <reference_id>  (976) 
97

>  <inspiration_ids>  (976) 
[2, 97]

>  <energy_score>  (976) 
62.65682469371151

>  <distance_score>  (976) 
13.057247119216495

>  <path>  (976) 
/opt/xchem-fragalysis-2/maxwin/BulkDock/SCRATCH/511022/C76771-P97/C76771-P97.minimised.mol

>  <scratch_subdir>  (976) 
/opt/xchem-fragalysis-2/maxwin/BulkDock/SCRATCH/511022/C76771-P97

>  <fragmenstein_runtime>  (976) 
28.863462209701538

>  <fragmenstein_outcome>  (976) 
too moved

>  <fragmenstein_mode>  (976) 
expansion

>  <fragmenstein_error>  (976) 


$$$$
C76773-P2
     RDKit          3D

 44 48  0  0  0  0  0  0  0  0999 V2000
    4.0032   -9.9902   13.9693 O   0  0  0  0  0  0  0  0  0  0  0  0
    4.1373   -9.1391   13.1275 C   0  0  0  0  0  0  0  0  0  0  0  0
    5.5126   -7.7159   13.7892 C   0  0  0  0  0  0  0  0  0  0  0  0
    6.6666   -7.9119   13.2338 C   0  0  0  0  0  0  0  0  0  0  0  0
    7.3201   -7.8481   14.3585 C   0  0  0  0  0  0  0  0  0  0  0  0
    8.5121   -7.1729   14.5888 C   0  0  0  0  0  0  0  0  0  0  0  0
    7.9277   -6.1460   15.1736 C   0  0  0  0  0  0  0  0  0  0  0  0
    8.7591   -4.3594   15.0626 C   0  0  0  0  0  0  0  0  0  0  0  0
    7.7040   -3.7560   15.5695 C   0  0  0  0  0  0  0  0  0  0  0  0
    7.0992   -5.5122   16.0598 N   0  0  0  0  0  0  0  0  0  0  0  0
    6.1891   -6.6129   15.2934 C   0  0  0  0  0  0  0  0  0  0  0  0
    3.0728   -9.6061   11.4666 N   0  0  0  0  0  0  0  0  0  0  0  0
    1.3005   -9.1713   10.9990 C   0  0  0  0  0  0  0  0  0  0  0  0
    0.2308   -9.6768    9.7457 C   0  0  0  0  0  0  0  0  0  0  0  0
   -1.0190  -11.1695   10.0067 N   0  0  0  0  0  0  0  0  0  0  0  0
   -2.5957  -11.5399    9.0939 C   0  0  0  0  0  0  0  0  0  0  0  0
   -3.4264  -11.1603    8.0548 N   0  0  0  0  0  0  0  0  0  0  0  0
   -4.5192  -11.7580    7.4381 C   0  0  0  0  0  0  0  0  0  0  0  0
   -5.4960  -11.2439    6.5862 C   0  0  0  0  0  0  0  0  0  0  0  0
   -6.7401  -11.8644    6.6324 C   0  0  0  0  0  0  0  0  0  0  0  0
   -6.9392  -12.9541    7.4749 C   0  0  0  0  0  0  0  0  0  0  0  0
   -5.8800  -13.6021    8.1310 C   0  0  0  0  0  0  0  0  0  0  0  0
   -4.6573  -12.9469    8.0518 C   0  0  0  0  0  0  0  0  0  0  0  0
   -3.3455  -13.0608    8.8975 O   0  0  0  0  0  0  0  0  0  0  0  0
    0.2368  -11.7188   11.2122 C   0  0  0  0  0  0  0  0  0  0  0  0
    2.1244  -11.0582   11.0381 C   0  0  0  0  0  0  0  0  0  0  0  0
    7.0689   -7.6440   12.2863 H   0  0  0  0  0  0  0  0  0  0  0  0
    7.5273   -8.5913   15.0447 H   0  0  0  0  0  0  0  0  0  0  0  0
    9.3952   -7.6187   15.0596 H   0  0  0  0  0  0  0  0  0  0  0  0
    9.8210   -4.1220   14.8850 H   0  0  0  0  0  0  0  0  0  0  0  0
    6.8891   -3.2092   15.0530 H   0  0  0  0  0  0  0  0  0  0  0  0
    7.0008   -5.6442   17.0702 H   0  0  0  0  0  0  0  0  0  0  0  0
    1.2853   -8.0586   11.0397 H   0  0  0  0  0  0  0  0  0  0  0  0
    0.6684   -9.6322   11.7378 H   0  0  0  0  0  0  0  0  0  0  0  0
    0.9080   -9.9854    9.0697 H   0  0  0  0  0  0  0  0  0  0  0  0
   -0.2828   -8.8328    9.2114 H   0  0  0  0  0  0  0  0  0  0  0  0
   -5.3591  -10.2901    6.0926 H   0  0  0  0  0  0  0  0  0  0  0  0
   -7.5817  -11.4150    6.1106 H   0  0  0  0  0  0  0  0  0  0  0  0
   -7.9632  -13.2454    7.6554 H   0  0  0  0  0  0  0  0  0  0  0  0
   -6.0472  -14.3795    8.8570 H   0  0  0  0  0  0  0  0  0  0  0  0
   -0.1823  -11.3696   12.1444 H   0  0  0  0  0  0  0  0  0  0  0  0
    0.2404  -12.8121   11.2687 H   0  0  0  0  0  0  0  0  0  0  0  0
    2.8093  -11.8227   10.6500 H   0  0  0  0  0  0  0  0  0  0  0  0
    2.0829  -11.1274   12.0892 H   0  0  0  0  0  0  0  0  0  0  0  0
  1  2  2  0
  2  3  1  0
  3  4  2  0
  4  5  1  0
  5  6  2  0
  6  7  1  0
  7  8  1  0
  8  9  2  0
  9 10  1  0
 10 11  1  0
  2 12  1  0
 12 13  1  0
 13 14  1  0
 14 15  1  0
 15 16  1  0
 16 17  2  0
 17 18  1  0
 18 19  2  0
 19 20  1  0
 20 21  2  0
 21 22  1  0
 22 23  2  0
 23 24  1  0
 15 25  1  0
 25 26  1  0
 11  3  1  0
 26 12  1  0
 11  7  2  0
 24 16  1  0
 23 18  1  0
  4 27  1  0
  5 28  1  0
  6 29  1  0
  8 30  1  0
  9 31  1  0
 10 32  1  0
 13 33  1  0
 13 34  1  0
 14 35  1  0
 14 36  1  0
 19 37  1  0
 20 38  1  0
 21 39  1  0
 22 40  1  0
 25 41  1  0
 25 42  1  0
 26 43  1  0
 26 44  1  0
M  END
>  <Energy>  (977) 
1671.9045740195995

>  <compound_id>  (977) 
76773

>  <target_id>  (977) 
1

>  <reference_id>  (977) 
2

>  <inspiration_ids>  (977) 
[2, 97]

>  <energy_score>  (977) 
1588.485516443386

>  <distance_score>  (977) 
9.540319960038413

>  <path>  (977) 
/opt/xchem-fragalysis-2/maxwin/BulkDock/SCRATCH/511022/C76773-P2/C76773-P2.minimised.mol

>  <scratch_subdir>  (977) 
/opt/xchem-fragalysis-2/maxwin/BulkDock/SCRATCH/511022/C76773-P2

>  <fragmenstein_runtime>  (977) 
18.134586811065674

>  <fragmenstein_outcome>  (977) 
too moved

>  <fragmenstein_mode>  (977) 
expansion

>  <fragmenstein_error>  (977) 


$$$$
C76773-P97
     RDKit          3D

 44 48  0  0  0  0  0  0  0  0999 V2000
    6.0045  -14.3758   13.6505 O   0  0  0  0  0  0  0  0  0  0  0  0
    6.2807  -13.6289   12.7765 C   0  0  0  0  0  0  0  0  0  0  0  0
    6.7023  -12.0754   13.4831 C   0  0  0  0  0  0  0  0  0  0  0  0
    8.4700  -11.3662   14.1721 C   0  0  0  0  0  0  0  0  0  0  0  0
    9.1048  -11.1503   15.3208 C   0  0  0  0  0  0  0  0  0  0  0  0
    8.2047  -10.2435   15.2639 C   0  0  0  0  0  0  0  0  0  0  0  0
    6.8535   -9.9441   13.9946 C   0  0  0  0  0  0  0  0  0  0  0  0
    6.1406   -8.3185   13.9927 C   0  0  0  0  0  0  0  0  0  0  0  0
    4.7908   -8.7288   13.8417 C   0  0  0  0  0  0  0  0  0  0  0  0
    4.6180  -10.2839   13.8681 N   0  0  0  0  0  0  0  0  0  0  0  0
    5.7972  -10.9708   13.7883 C   0  0  0  0  0  0  0  0  0  0  0  0
    6.0599  -14.2089   10.9860 N   0  0  0  0  0  0  0  0  0  0  0  0
    4.5281  -13.8657   10.3302 C   0  0  0  0  0  0  0  0  0  0  0  0
    3.3701  -14.8974    9.5032 C   0  0  0  0  0  0  0  0  0  0  0  0
    3.7276  -15.9887    8.5722 N   0  0  0  0  0  0  0  0  0  0  0  0
    2.6458  -16.8600    8.3468 C   0  0  0  0  0  0  0  0  0  0  0  0
    1.7804  -16.8702    7.3454 N   0  0  0  0  0  0  0  0  0  0  0  0
    0.6734  -17.5402    7.8401 C   0  0  0  0  0  0  0  0  0  0  0  0
   -0.6128  -17.7401    7.3111 C   0  0  0  0  0  0  0  0  0  0  0  0
   -1.6164  -18.1598    8.1967 C   0  0  0  0  0  0  0  0  0  0  0  0
   -1.3271  -18.4573    9.5305 C   0  0  0  0  0  0  0  0  0  0  0  0
   -0.0230  -18.4394   10.0212 C   0  0  0  0  0  0  0  0  0  0  0  0
    0.9206  -17.9262    9.1436 C   0  0  0  0  0  0  0  0  0  0  0  0
    2.2098  -17.5922    9.4368 O   0  0  0  0  0  0  0  0  0  0  0  0
    4.9317  -16.6041    9.0957 C   0  0  0  0  0  0  0  0  0  0  0  0
    5.6161  -15.7531   10.3125 C   0  0  0  0  0  0  0  0  0  0  0  0
    9.4723  -11.4200   13.6371 H   0  0  0  0  0  0  0  0  0  0  0  0
   10.1196  -11.0181   15.6286 H   0  0  0  0  0  0  0  0  0  0  0  0
    8.7229   -9.4208   15.7198 H   0  0  0  0  0  0  0  0  0  0  0  0
    6.6207   -7.6705   13.2947 H   0  0  0  0  0  0  0  0  0  0  0  0
    4.0288   -8.1604   13.4139 H   0  0  0  0  0  0  0  0  0  0  0  0
    3.6824  -10.5974   13.6913 H   0  0  0  0  0  0  0  0  0  0  0  0
    4.7610  -13.2360    9.5012 H   0  0  0  0  0  0  0  0  0  0  0  0
    3.9965  -13.1540   10.9480 H   0  0  0  0  0  0  0  0  0  0  0  0
    2.6275  -15.4372   10.0727 H   0  0  0  0  0  0  0  0  0  0  0  0
    2.7403  -14.1352    9.0765 H   0  0  0  0  0  0  0  0  0  0  0  0
   -0.8415  -17.4493    6.2924 H   0  0  0  0  0  0  0  0  0  0  0  0
   -2.6452  -18.2142    7.8651 H   0  0  0  0  0  0  0  0  0  0  0  0
   -2.1398  -18.7032   10.2073 H   0  0  0  0  0  0  0  0  0  0  0  0
    0.2227  -18.6889   11.0457 H   0  0  0  0  0  0  0  0  0  0  0  0
    4.7307  -17.6188    9.4806 H   0  0  0  0  0  0  0  0  0  0  0  0
    5.6513  -16.8248    8.2897 H   0  0  0  0  0  0  0  0  0  0  0  0
    6.5993  -15.8917    9.8438 H   0  0  0  0  0  0  0  0  0  0  0  0
    5.0994  -16.4294   10.9591 H   0  0  0  0  0  0  0  0  0  0  0  0
  1  2  2  0
  2  3  1  0
  3  4  2  0
  4  5  1  0
  5  6  2  0
  6  7  1  0
  7  8  1  0
  8  9  2  0
  9 10  1  0
 10 11  1  0
  2 12  1  0
 12 13  1  0
 13 14  1  0
 14 15  1  0
 15 16  1  0
 16 17  2  0
 17 18  1  0
 18 19  2  0
 19 20  1  0
 20 21  2  0
 21 22  1  0
 22 23  2  0
 23 24  1  0
 15 25  1  0
 25 26  1  0
 11  3  1  0
 26 12  1  0
 11  7  2  0
 24 16  1  0
 23 18  1  0
  4 27  1  0
  5 28  1  0
  6 29  1  0
  8 30  1  0
  9 31  1  0
 10 32  1  0
 13 33  1  0
 13 34  1  0
 14 35  1  0
 14 36  1  0
 19 37  1  0
 20 38  1  0
 21 39  1  0
 22 40  1  0
 25 41  1  0
 25 42  1  0
 26 43  1  0
 26 44  1  0
M  END
>  <Energy>  (978) 
812.76211146463243

>  <compound_id>  (978) 
76773

>  <target_id>  (978) 
1

>  <reference_id>  (978) 
97

>  <inspiration_ids>  (978) 
[2, 97]

>  <energy_score>  (978) 
729.3430538884238

>  <distance_score>  (978) 
10.835891725902568

>  <path>  (978) 
/opt/xchem-fragalysis-2/maxwin/BulkDock/SCRATCH/511022/C76773-P97/C76773-P97.minimised.mol

>  <scratch_subdir>  (978) 
/opt/xchem-fragalysis-2/maxwin/BulkDock/SCRATCH/511022/C76773-P97

>  <fragmenstein_runtime>  (978) 
19.58485245704651

>  <fragmenstein_outcome>  (978) 
too moved

>  <fragmenstein_mode>  (978) 
expansion

>  <fragmenstein_error>  (978) 


$$$$
C39464-P2
     RDKit          3D

 44 48  0  0  0  0  0  0  0  0999 V2000
    3.0389  -16.9097    9.7371 O   0  0  0  0  0  0  0  0  0  0  0  0
    2.1979  -16.0970    9.4305 C   0  0  0  0  0  0  0  0  0  0  0  0
    2.8811  -14.4698    9.5003 C   0  0  0  0  0  0  0  0  0  0  0  0
    4.1451  -13.9282    9.6617 C   0  0  0  0  0  0  0  0  0  0  0  0
    3.8631  -12.5911    9.2917 C   0  0  0  0  0  0  0  0  0  0  0  0
    4.5067  -11.6125    8.6202 C   0  0  0  0  0  0  0  0  0  0  0  0
    4.5311  -10.3627    8.8216 C   0  0  0  0  0  0  0  0  0  0  0  0
    3.8319  -10.0849    9.9832 C   0  0  0  0  0  0  0  0  0  0  0  0
    2.9426  -10.7875   10.6816 C   0  0  0  0  0  0  0  0  0  0  0  0
    3.1786  -11.9966   10.2371 C   0  0  0  0  0  0  0  0  0  0  0  0
    2.4249  -12.9841   10.2983 N   0  0  0  0  0  0  0  0  0  0  0  0
    0.6820  -16.4116    8.8918 N   0  0  0  0  0  0  0  0  0  0  0  0
   -0.0339  -17.8015    8.5220 C   0  0  0  0  0  0  0  0  0  0  0  0
   -1.6444  -17.8801    7.9482 C   0  0  0  0  0  0  0  0  0  0  0  0
   -2.7549  -17.6512    8.9918 N   0  0  0  0  0  0  0  0  0  0  0  0
   -4.2224  -17.3369    8.4084 C   0  0  0  0  0  0  0  0  0  0  0  0
   -5.8632  -17.4054    8.6563 N   0  0  0  0  0  0  0  0  0  0  0  0
   -6.9232  -18.7220    9.2148 C   0  0  0  0  0  0  0  0  0  0  0  0
   -7.3972  -19.8202   10.1023 C   0  0  0  0  0  0  0  0  0  0  0  0
   -8.4753  -20.6009    9.6893 C   0  0  0  0  0  0  0  0  0  0  0  0
   -9.1202  -20.2125    8.5382 C   0  0  0  0  0  0  0  0  0  0  0  0
   -8.7498  -18.9793    7.9117 C   0  0  0  0  0  0  0  0  0  0  0  0
   -7.5509  -18.0194    8.1989 C   0  0  0  0  0  0  0  0  0  0  0  0
   -5.8218  -18.3396    8.8029 O   0  0  0  0  0  0  0  0  0  0  0  0
   -2.0310  -16.4503    9.7494 C   0  0  0  0  0  0  0  0  0  0  0  0
   -0.3407  -16.4959   10.0952 C   0  0  0  0  0  0  0  0  0  0  0  0
    5.0783  -14.4632    9.7383 H   0  0  0  0  0  0  0  0  0  0  0  0
    5.6079  -11.8347    8.4965 H   0  0  0  0  0  0  0  0  0  0  0  0
    5.1874   -9.7165    8.2461 H   0  0  0  0  0  0  0  0  0  0  0  0
    4.0170   -9.0588   10.2806 H   0  0  0  0  0  0  0  0  0  0  0  0
    2.1806  -10.5090   11.3523 H   0  0  0  0  0  0  0  0  0  0  0  0
    1.5607  -12.9429   10.8494 H   0  0  0  0  0  0  0  0  0  0  0  0
    0.5608  -18.1131    7.6515 H   0  0  0  0  0  0  0  0  0  0  0  0
    0.1690  -18.5862    9.2667 H   0  0  0  0  0  0  0  0  0  0  0  0
   -1.7365  -17.1338    7.1502 H   0  0  0  0  0  0  0  0  0  0  0  0
   -1.7849  -18.8806    7.5264 H   0  0  0  0  0  0  0  0  0  0  0  0
   -6.8582  -20.0266   11.0210 H   0  0  0  0  0  0  0  0  0  0  0  0
   -8.7616  -21.4794   10.2541 H   0  0  0  0  0  0  0  0  0  0  0  0
   -9.9361  -20.7998    8.1309 H   0  0  0  0  0  0  0  0  0  0  0  0
   -9.2614  -18.8088    6.9742 H   0  0  0  0  0  0  0  0  0  0  0  0
   -2.2785  -15.5438    9.1980 H   0  0  0  0  0  0  0  0  0  0  0  0
   -2.4341  -16.3228   10.7373 H   0  0  0  0  0  0  0  0  0  0  0  0
   -0.1010  -17.3213   10.7832 H   0  0  0  0  0  0  0  0  0  0  0  0
   -0.1447  -15.5927   10.6898 H   0  0  0  0  0  0  0  0  0  0  0  0
  1  2  2  0
  2  3  1  0
  3  4  2  0
  4  5  1  0
  5  6  2  0
  6  7  1  0
  7  8  2  0
  8  9  1  0
  9 10  2  0
 10 11  1  0
  2 12  1  0
 12 13  1  0
 13 14  1  0
 14 15  1  0
 15 16  1  0
 16 17  2  0
 17 18  1  0
 18 19  2  0
 19 20  1  0
 20 21  2  0
 21 22  1  0
 22 23  2  0
 23 24  1  0
 15 25  1  0
 25 26  1  0
 11  3  1  0
 26 12  1  0
 10  5  1  0
 24 16  1  0
 23 18  1  0
  4 27  1  0
  6 28  1  0
  7 29  1  0
  8 30  1  0
  9 31  1  0
 11 32  1  0
 13 33  1  0
 13 34  1  0
 14 35  1  0
 14 36  1  0
 19 37  1  0
 20 38  1  0
 21 39  1  0
 22 40  1  0
 25 41  1  0
 25 42  1  0
 26 43  1  0
 26 44  1  0
M  END
>  <Energy>  (979) 
1097.7262477852551

>  <compound_id>  (979) 
39464

>  <target_id>  (979) 
1

>  <reference_id>  (979) 
2

>  <inspiration_ids>  (979) 
[2, 97]

>  <energy_score>  (979) 
1020.8834521251565

>  <distance_score>  (979) 
11.779474665656991

>  <path>  (979) 
/opt/xchem-fragalysis-2/maxwin/BulkDock/SCRATCH/511022/C39464-P2/C39464-P2.minimised.mol

>  <scratch_subdir>  (979) 
/opt/xchem-fragalysis-2/maxwin/BulkDock/SCRATCH/511022/C39464-P2

>  <fragmenstein_runtime>  (979) 
18.34653329849243

>  <fragmenstein_outcome>  (979) 
too moved

>  <fragmenstein_mode>  (979) 
expansion

>  <fragmenstein_error>  (979) 


$$$$
C39464-P97
     RDKit          3D

 44 48  0  0  0  0  0  0  0  0999 V2000
    2.5618  -12.7986   10.4137 O   0  0  0  0  0  0  0  0  0  0  0  0
    3.1301  -13.1225    9.4110 C   0  0  0  0  0  0  0  0  0  0  0  0
    4.1771  -11.6058    8.7535 C   0  0  0  0  0  0  0  0  0  0  0  0
    4.4933  -10.2062    9.0673 C   0  0  0  0  0  0  0  0  0  0  0  0
    5.0672   -8.5966    7.9892 C   0  0  0  0  0  0  0  0  0  0  0  0
    5.3063   -6.6887    7.4853 C   0  0  0  0  0  0  0  0  0  0  0  0
    5.8432   -5.4583    7.8240 C   0  0  0  0  0  0  0  0  0  0  0  0
    6.4465   -5.9233    8.8855 C   0  0  0  0  0  0  0  0  0  0  0  0
    6.3741   -7.5746    9.3575 C   0  0  0  0  0  0  0  0  0  0  0  0
    6.2796   -9.1036    8.3693 C   0  0  0  0  0  0  0  0  0  0  0  0
    5.8309  -10.8274    8.5828 N   0  0  0  0  0  0  0  0  0  0  0  0
    2.6673  -14.9127    8.7777 N   0  0  0  0  0  0  0  0  0  0  0  0
    1.6009  -16.2615    9.5239 C   0  0  0  0  0  0  0  0  0  0  0  0
   -0.2339  -16.8951    9.8016 C   0  0  0  0  0  0  0  0  0  0  0  0
   -1.3856  -17.2449    8.4909 N   0  0  0  0  0  0  0  0  0  0  0  0
   -3.0135  -18.0260    8.4436 C   0  0  0  0  0  0  0  0  0  0  0  0
   -4.5311  -17.6338    8.2376 N   0  0  0  0  0  0  0  0  0  0  0  0
   -6.1625  -18.7446    7.9781 C   0  0  0  0  0  0  0  0  0  0  0  0
   -7.2262  -19.0716    6.2251 C   0  0  0  0  0  0  0  0  0  0  0  0
   -7.7646  -20.9179    5.7978 C   0  0  0  0  0  0  0  0  0  0  0  0
   -6.7491  -22.3468    6.5783 C   0  0  0  0  0  0  0  0  0  0  0  0
   -5.3335  -22.1288    7.9321 C   0  0  0  0  0  0  0  0  0  0  0  0
   -4.8847  -20.3384    8.4626 C   0  0  0  0  0  0  0  0  0  0  0  0
   -3.2717  -19.6323    8.4855 O   0  0  0  0  0  0  0  0  0  0  0  0
   -0.0547  -16.8579    7.3373 C   0  0  0  0  0  0  0  0  0  0  0  0
    1.3150  -15.4347    7.5851 C   0  0  0  0  0  0  0  0  0  0  0  0
    3.9719   -9.9587   10.0148 H   0  0  0  0  0  0  0  0  0  0  0  0
    5.4434   -6.6992    6.3346 H   0  0  0  0  0  0  0  0  0  0  0  0
    5.9739   -4.5584    7.2657 H   0  0  0  0  0  0  0  0  0  0  0  0
    7.2391   -5.2440    9.2062 H   0  0  0  0  0  0  0  0  0  0  0  0
    7.1271   -7.4215   10.1169 H   0  0  0  0  0  0  0  0  0  0  0  0
    6.5941  -11.4815    8.5853 H   0  0  0  0  0  0  0  0  0  0  0  0
    2.0666  -17.1447    9.0537 H   0  0  0  0  0  0  0  0  0  0  0  0
    1.9492  -16.2915   10.5422 H   0  0  0  0  0  0  0  0  0  0  0  0
   -0.1076  -17.8652   10.2933 H   0  0  0  0  0  0  0  0  0  0  0  0
   -0.7336  -16.1855   10.4695 H   0  0  0  0  0  0  0  0  0  0  0  0
   -8.1143  -18.5528    5.9064 H   0  0  0  0  0  0  0  0  0  0  0  0
   -8.4999  -21.1027    5.0182 H   0  0  0  0  0  0  0  0  0  0  0  0
   -6.8714  -23.3470    6.1496 H   0  0  0  0  0  0  0  0  0  0  0  0
   -4.5206  -22.8552    8.0004 H   0  0  0  0  0  0  0  0  0  0  0  0
   -0.5628  -16.6142    6.3988 H   0  0  0  0  0  0  0  0  0  0  0  0
    0.5074  -17.7945    7.2587 H   0  0  0  0  0  0  0  0  0  0  0  0
    1.0989  -14.5783    6.9254 H   0  0  0  0  0  0  0  0  0  0  0  0
    2.0267  -15.9670    6.9215 H   0  0  0  0  0  0  0  0  0  0  0  0
  1  2  2  0
  2  3  1  0
  3  4  2  0
  4  5  1  0
  5  6  2  0
  6  7  1  0
  7  8  2  0
  8  9  1  0
  9 10  2  0
 10 11  1  0
  2 12  1  0
 12 13  1  0
 13 14  1  0
 14 15  1  0
 15 16  1  0
 16 17  2  0
 17 18  1  0
 18 19  2  0
 19 20  1  0
 20 21  2  0
 21 22  1  0
 22 23  2  0
 23 24  1  0
 15 25  1  0
 25 26  1  0
 11  3  1  0
 26 12  1  0
 10  5  1  0
 24 16  1  0
 23 18  1  0
  4 27  1  0
  6 28  1  0
  7 29  1  0
  8 30  1  0
  9 31  1  0
 11 32  1  0
 13 33  1  0
 13 34  1  0
 14 35  1  0
 14 36  1  0
 19 37  1  0
 20 38  1  0
 21 39  1  0
 22 40  1  0
 25 41  1  0
 25 42  1  0
 26 43  1  0
 26 44  1  0
M  END
>  <Energy>  (980) 
2317.2063089174444

>  <compound_id>  (980) 
39464

>  <target_id>  (980) 
1

>  <reference_id>  (980) 
97

>  <inspiration_ids>  (980) 
[2, 97]

>  <energy_score>  (980) 
2240.3635132573863

>  <distance_score>  (980) 
10.267998343299935

>  <path>  (980) 
/opt/xchem-fragalysis-2/maxwin/BulkDock/SCRATCH/511022/C39464-P97/C39464-P97.minimised.mol

>  <scratch_subdir>  (980) 
/opt/xchem-fragalysis-2/maxwin/BulkDock/SCRATCH/511022/C39464-P97

>  <fragmenstein_runtime>  (980) 
15.477122068405151

>  <fragmenstein_outcome>  (980) 
too moved

>  <fragmenstein_mode>  (980) 
expansion

>  <fragmenstein_error>  (980) 


$$$$
C14449-P2
     RDKit          3D

 44 48  0  0  0  0  0  0  0  0999 V2000
    1.7036   -7.3080   11.0328 O   0  0  0  0  0  0  0  0  0  0  0  0
    2.6276   -7.9830   11.4001 C   0  0  0  0  0  0  0  0  0  0  0  0
    3.8649   -6.9639   12.0537 C   0  0  0  0  0  0  0  0  0  0  0  0
    4.1662   -7.5500   13.5882 C   0  0  0  0  0  0  0  0  0  0  0  0
    3.6114   -6.5105   14.8962 C   0  0  0  0  0  0  0  0  0  0  0  0
    2.9496   -5.1847   14.6715 C   0  0  0  0  0  0  0  0  0  0  0  0
    2.9272   -4.6636   13.3059 C   0  0  0  0  0  0  0  0  0  0  0  0
    2.6305   -3.3576   12.9503 N   0  0  0  0  0  0  0  0  0  0  0  0
    3.1988   -3.0531   11.7549 C   0  0  0  0  0  0  0  0  0  0  0  0
    3.6835   -4.2217   11.2203 C   0  0  0  0  0  0  0  0  0  0  0  0
    3.4245   -5.3573   12.0960 C   0  0  0  0  0  0  0  0  0  0  0  0
    2.4585   -9.8683   11.3586 N   0  0  0  0  0  0  0  0  0  0  0  0
    2.8056  -10.8280   10.2680 C   0  0  0  0  0  0  0  0  0  0  0  0
    2.3574  -12.6466   10.4242 C   0  0  0  0  0  0  0  0  0  0  0  0
    0.7092  -13.5111   11.1249 N   0  0  0  0  0  0  0  0  0  0  0  0
   -0.6429  -14.6312   10.5929 C   0  0  0  0  0  0  0  0  0  0  0  0
   -1.8284  -14.2883   10.0984 N   0  0  0  0  0  0  0  0  0  0  0  0
   -3.1490  -14.9166    9.1972 C   0  0  0  0  0  0  0  0  0  0  0  0
   -4.8924  -14.4942    8.9091 C   0  0  0  0  0  0  0  0  0  0  0  0
   -6.3906  -15.5893    8.9733 C   0  0  0  0  0  0  0  0  0  0  0  0
   -5.9560  -17.4356    8.5170 C   0  0  0  0  0  0  0  0  0  0  0  0
   -3.9656  -17.3639    8.5216 C   0  0  0  0  0  0  0  0  0  0  0  0
   -2.6999  -16.2363    9.0479 C   0  0  0  0  0  0  0  0  0  0  0  0
   -1.1146  -16.2017    9.8779 O   0  0  0  0  0  0  0  0  0  0  0  0
    0.3649  -12.1436   11.7094 C   0  0  0  0  0  0  0  0  0  0  0  0
    1.2563  -10.7359   11.0375 C   0  0  0  0  0  0  0  0  0  0  0  0
    4.4122   -8.5887   13.7112 H   0  0  0  0  0  0  0  0  0  0  0  0
    3.5254   -6.8263   15.9351 H   0  0  0  0  0  0  0  0  0  0  0  0
    2.5968   -4.5918   15.5093 H   0  0  0  0  0  0  0  0  0  0  0  0
    2.2520   -2.6763   13.5916 H   0  0  0  0  0  0  0  0  0  0  0  0
    3.2147   -2.0393   11.3787 H   0  0  0  0  0  0  0  0  0  0  0  0
    4.2134   -4.2231   10.2845 H   0  0  0  0  0  0  0  0  0  0  0  0
    3.8262  -10.9225   10.4891 H   0  0  0  0  0  0  0  0  0  0  0  0
    2.9319  -10.6140    9.2090 H   0  0  0  0  0  0  0  0  0  0  0  0
    3.2557  -12.8211   11.0003 H   0  0  0  0  0  0  0  0  0  0  0  0
    2.7994  -13.1090    9.5085 H   0  0  0  0  0  0  0  0  0  0  0  0
   -5.0953  -13.4303    9.0694 H   0  0  0  0  0  0  0  0  0  0  0  0
   -7.1915  -15.0418    8.5713 H   0  0  0  0  0  0  0  0  0  0  0  0
   -6.5712  -18.2776    8.7720 H   0  0  0  0  0  0  0  0  0  0  0  0
   -3.4415  -18.3456    8.7409 H   0  0  0  0  0  0  0  0  0  0  0  0
   -0.6171  -11.8190   11.5545 H   0  0  0  0  0  0  0  0  0  0  0  0
    0.4005  -12.2623   12.7880 H   0  0  0  0  0  0  0  0  0  0  0  0
    0.6998  -10.1304   10.2960 H   0  0  0  0  0  0  0  0  0  0  0  0
    0.6343  -10.2183   11.7546 H   0  0  0  0  0  0  0  0  0  0  0  0
  1  2  2  0
  2  3  1  0
  3  4  2  0
  4  5  1  0
  5  6  2  0
  6  7  1  0
  7  8  1  0
  8  9  1  0
  9 10  2  0
 10 11  1  0
  2 12  1  0
 12 13  1  0
 13 14  1  0
 14 15  1  0
 15 16  1  0
 16 17  2  0
 17 18  1  0
 18 19  2  0
 19 20  1  0
 20 21  2  0
 21 22  1  0
 22 23  2  0
 23 24  1  0
 15 25  1  0
 25 26  1  0
 11  3  1  0
 26 12  1  0
 11  7  2  0
 24 16  1  0
 23 18  1  0
  4 27  1  0
  5 28  1  0
  6 29  1  0
  8 30  1  0
  9 31  1  0
 10 32  1  0
 13 33  1  0
 13 34  1  0
 14 35  1  0
 14 36  1  0
 19 37  1  0
 20 38  1  0
 21 39  1  0
 22 40  1  0
 25 41  1  0
 25 42  1  0
 26 43  1  0
 26 44  1  0
M  END
>  <Energy>  (981) 
1304.8740087449048

>  <compound_id>  (981) 
14449

>  <target_id>  (981) 
1

>  <reference_id>  (981) 
2

>  <inspiration_ids>  (981) 
[2, 97]

>  <energy_score>  (981) 
1216.3356958231516

>  <distance_score>  (981) 
10.303720931770648

>  <path>  (981) 
/opt/xchem-fragalysis-2/maxwin/BulkDock/SCRATCH/511022/C14449-P2/C14449-P2.minimised.mol

>  <scratch_subdir>  (981) 
/opt/xchem-fragalysis-2/maxwin/BulkDock/SCRATCH/511022/C14449-P2

>  <fragmenstein_runtime>  (981) 
13.214289903640747

>  <fragmenstein_outcome>  (981) 
too moved

>  <fragmenstein_mode>  (981) 
expansion

>  <fragmenstein_error>  (981) 


$$$$
C14449-P97
     RDKit          3D

 44 48  0  0  0  0  0  0  0  0999 V2000
    4.2258   -9.0977   13.9981 O   0  0  0  0  0  0  0  0  0  0  0  0
    4.4099   -8.1400   13.4092 C   0  0  0  0  0  0  0  0  0  0  0  0
    5.7325   -6.9880   14.4734 C   0  0  0  0  0  0  0  0  0  0  0  0
    6.4128   -7.3435   15.4228 C   0  0  0  0  0  0  0  0  0  0  0  0
    7.1673   -7.7721   14.6107 C   0  0  0  0  0  0  0  0  0  0  0  0
    8.1607   -6.9812   15.0437 C   0  0  0  0  0  0  0  0  0  0  0  0
    7.6630   -5.6365   15.7603 C   0  0  0  0  0  0  0  0  0  0  0  0
    8.4724   -4.0793   15.3302 N   0  0  0  0  0  0  0  0  0  0  0  0
    7.4692   -2.9909   15.0567 C   0  0  0  0  0  0  0  0  0  0  0  0
    6.1637   -3.6638   15.1783 C   0  0  0  0  0  0  0  0  0  0  0  0
    6.3356   -5.6274   15.7378 C   0  0  0  0  0  0  0  0  0  0  0  0
    3.4951   -8.2929   11.6869 N   0  0  0  0  0  0  0  0  0  0  0  0
    1.7081   -7.7628   11.1928 C   0  0  0  0  0  0  0  0  0  0  0  0
    0.6187   -7.8497    9.5292 C   0  0  0  0  0  0  0  0  0  0  0  0
    0.0121   -9.3190    9.3841 N   0  0  0  0  0  0  0  0  0  0  0  0
   -1.6131   -9.6420    8.7853 C   0  0  0  0  0  0  0  0  0  0  0  0
   -2.0698   -9.2185    7.5749 N   0  0  0  0  0  0  0  0  0  0  0  0
   -3.3754   -9.7506    7.4391 C   0  0  0  0  0  0  0  0  0  0  0  0
   -4.2977   -9.7397    6.3764 C   0  0  0  0  0  0  0  0  0  0  0  0
   -5.4691  -10.5241    6.4660 C   0  0  0  0  0  0  0  0  0  0  0  0
   -5.7454  -11.2906    7.5979 C   0  0  0  0  0  0  0  0  0  0  0  0
   -4.8582  -11.2955    8.6743 C   0  0  0  0  0  0  0  0  0  0  0  0
   -3.6868  -10.5287    8.5404 C   0  0  0  0  0  0  0  0  0  0  0  0
   -2.5644  -10.5029    9.3608 O   0  0  0  0  0  0  0  0  0  0  0  0
    0.9529  -10.1168   10.6651 C   0  0  0  0  0  0  0  0  0  0  0  0
    2.5510   -9.8055   10.8882 C   0  0  0  0  0  0  0  0  0  0  0  0
    6.2000   -7.1567   16.4677 H   0  0  0  0  0  0  0  0  0  0  0  0
    7.0220   -7.9987   13.5107 H   0  0  0  0  0  0  0  0  0  0  0  0
    9.1616   -7.4136   15.1021 H   0  0  0  0  0  0  0  0  0  0  0  0
    9.4686   -4.1624   15.1496 H   0  0  0  0  0  0  0  0  0  0  0  0
    7.8034   -2.0109   14.7396 H   0  0  0  0  0  0  0  0  0  0  0  0
    5.1677   -3.2089   15.0747 H   0  0  0  0  0  0  0  0  0  0  0  0
    2.0808   -6.7796   11.3958 H   0  0  0  0  0  0  0  0  0  0  0  0
    0.8811   -7.7891   11.8737 H   0  0  0  0  0  0  0  0  0  0  0  0
   -0.1358   -7.0658    9.5598 H   0  0  0  0  0  0  0  0  0  0  0  0
    0.6327   -7.8339    8.4438 H   0  0  0  0  0  0  0  0  0  0  0  0
   -4.0803   -9.1647    5.4825 H   0  0  0  0  0  0  0  0  0  0  0  0
   -6.1678  -10.5222    5.6317 H   0  0  0  0  0  0  0  0  0  0  0  0
   -6.6571  -11.8800    7.6461 H   0  0  0  0  0  0  0  0  0  0  0  0
   -5.0707  -11.8957    9.5467 H   0  0  0  0  0  0  0  0  0  0  0  0
    0.5697   -9.8453   11.6145 H   0  0  0  0  0  0  0  0  0  0  0  0
    0.6389  -11.1429   10.8897 H   0  0  0  0  0  0  0  0  0  0  0  0
    3.2320  -10.2845   10.1545 H   0  0  0  0  0  0  0  0  0  0  0  0
    2.8114  -10.6085   11.5965 H   0  0  0  0  0  0  0  0  0  0  0  0
  1  2  2  0
  2  3  1  0
  3  4  2  0
  4  5  1  0
  5  6  2  0
  6  7  1  0
  7  8  1  0
  8  9  1  0
  9 10  2  0
 10 11  1  0
  2 12  1  0
 12 13  1  0
 13 14  1  0
 14 15  1  0
 15 16  1  0
 16 17  2  0
 17 18  1  0
 18 19  2  0
 19 20  1  0
 20 21  2  0
 21 22  1  0
 22 23  2  0
 23 24  1  0
 15 25  1  0
 25 26  1  0
 11  3  1  0
 26 12  1  0
 11  7  2  0
 24 16  1  0
 23 18  1  0
  4 27  1  0
  5 28  1  0
  6 29  1  0
  8 30  1  0
  9 31  1  0
 10 32  1  0
 13 33  1  0
 13 34  1  0
 14 35  1  0
 14 36  1  0
 19 37  1  0
 20 38  1  0
 21 39  1  0
 22 40  1  0
 25 41  1  0
 25 42  1  0
 26 43  1  0
 26 44  1  0
M  END
>  <Energy>  (982) 
1327.7996627875395

>  <compound_id>  (982) 
14449

>  <target_id>  (982) 
1

>  <reference_id>  (982) 
97

>  <inspiration_ids>  (982) 
[2, 97]

>  <energy_score>  (982) 
1239.2613498657959

>  <distance_score>  (982) 
10.895587115191452

>  <path>  (982) 
/opt/xchem-fragalysis-2/maxwin/BulkDock/SCRATCH/511022/C14449-P97/C14449-P97.minimised.mol

>  <scratch_subdir>  (982) 
/opt/xchem-fragalysis-2/maxwin/BulkDock/SCRATCH/511022/C14449-P97

>  <fragmenstein_runtime>  (982) 
19.16795015335083

>  <fragmenstein_outcome>  (982) 
too moved

>  <fragmenstein_mode>  (982) 
expansion

>  <fragmenstein_error>  (982) 


$$$$
C76774-P2
     RDKit          3D

 36 39  0  0  0  0  0  0  0  0999 V2000
    5.4166  -18.1434    9.9998 F   0  0  0  0  0  0  0  0  0  0  0  0
    4.2016  -17.7740    9.5713 C   0  0  0  0  0  0  0  0  0  0  0  0
    3.2047  -18.7626    9.4126 C   0  0  0  0  0  0  0  0  0  0  0  0
    1.9190  -18.4302    8.9835 C   0  0  0  0  0  0  0  0  0  0  0  0
    1.6062  -17.1001    8.7027 C   0  0  0  0  0  0  0  0  0  0  0  0
    2.6249  -16.1634    8.9201 C   0  0  0  0  0  0  0  0  0  0  0  0
    2.5658  -14.8139    8.7930 O   0  0  0  0  0  0  0  0  0  0  0  0
    3.7312  -14.1612    9.3218 C   0  0  0  0  0  0  0  0  0  0  0  0
    3.6755  -12.6822    9.5227 N   0  0  0  0  0  0  0  0  0  0  0  0
    4.3483  -11.1160    8.7865 C   0  0  0  0  0  0  0  0  0  0  0  0
    6.2007  -10.5477    8.3680 C   0  0  0  0  0  0  0  0  0  0  0  0
    7.7743   -9.5852    8.9624 C   0  0  0  0  0  0  0  0  0  0  0  0
    9.2791  -10.4365    8.4712 C   0  0  0  0  0  0  0  0  0  0  0  0
   10.5657   -9.0754    8.2186 C   0  0  0  0  0  0  0  0  0  0  0  0
   12.0343   -9.1452    7.7841 C   0  0  0  0  0  0  0  0  0  0  0  0
   13.0838   -8.3626    8.4476 C   0  0  0  0  0  0  0  0  0  0  0  0
   12.8898   -7.4801    9.5882 C   0  0  0  0  0  0  0  0  0  0  0  0
   11.5875   -7.2446   10.2856 C   0  0  0  0  0  0  0  0  0  0  0  0
    9.9101   -7.8730    9.6686 C   0  0  0  0  0  0  0  0  0  0  0  0
    8.6021   -8.3506   10.2020 N   0  0  0  0  0  0  0  0  0  0  0  0
    4.6079  -15.1722    9.4823 N   0  0  0  0  0  0  0  0  0  0  0  0
    3.9025  -16.4232    9.3286 C   0  0  0  0  0  0  0  0  0  0  0  0
    3.4594  -19.7970    9.6303 H   0  0  0  0  0  0  0  0  0  0  0  0
    1.1661  -19.2063    8.8627 H   0  0  0  0  0  0  0  0  0  0  0  0
    0.6223  -16.8179    8.3596 H   0  0  0  0  0  0  0  0  0  0  0  0
    3.7715  -12.5324   10.5213 H   0  0  0  0  0  0  0  0  0  0  0  0
    4.0556  -10.4502    9.6155 H   0  0  0  0  0  0  0  0  0  0  0  0
    3.5619  -10.8772    8.0977 H   0  0  0  0  0  0  0  0  0  0  0  0
    6.7574  -11.4917    8.2847 H   0  0  0  0  0  0  0  0  0  0  0  0
    6.1544   -9.9282    7.4743 H   0  0  0  0  0  0  0  0  0  0  0  0
    9.2931  -11.3024    7.8191 H   0  0  0  0  0  0  0  0  0  0  0  0
   12.2958   -9.9186    7.0666 H   0  0  0  0  0  0  0  0  0  0  0  0
   14.1001   -8.4811    8.0684 H   0  0  0  0  0  0  0  0  0  0  0  0
   13.7532   -6.9191    9.9360 H   0  0  0  0  0  0  0  0  0  0  0  0
   11.6554   -6.5564   11.1272 H   0  0  0  0  0  0  0  0  0  0  0  0
    8.1204   -7.5567   10.6034 H   0  0  0  0  0  0  0  0  0  0  0  0
  1  2  1  0
  2  3  2  0
  3  4  1  0
  4  5  2  0
  5  6  1  0
  6  7  1  0
  7  8  1  0
  8  9  1  0
  9 10  1  0
 10 11  1  0
 11 12  1  0
 12 13  2  0
 13 14  1  0
 14 15  2  0
 15 16  1  0
 16 17  2  0
 17 18  1  0
 18 19  2  0
 19 20  1  0
  8 21  2  0
 21 22  1  0
 22  2  1  0
 22  6  2  0
 20 12  1  0
 19 14  1  0
  3 23  1  0
  4 24  1  0
  5 25  1  0
  9 26  1  0
 10 27  1  0
 10 28  1  0
 11 29  1  0
 11 30  1  0
 13 31  1  0
 15 32  1  0
 16 33  1  0
 17 34  1  0
 18 35  1  0
 20 36  1  0
M  END
>  <Energy>  (983) 
684.25455585134796

>  <compound_id>  (983) 
76774

>  <target_id>  (983) 
1

>  <reference_id>  (983) 
2

>  <inspiration_ids>  (983) 
[2, 97]

>  <energy_score>  (983) 
640.8768195066696

>  <distance_score>  (983) 
12.30505825663341

>  <path>  (983) 
/opt/xchem-fragalysis-2/maxwin/BulkDock/SCRATCH/511022/C76774-P2/C76774-P2.minimised.mol

>  <scratch_subdir>  (983) 
/opt/xchem-fragalysis-2/maxwin/BulkDock/SCRATCH/511022/C76774-P2

>  <fragmenstein_runtime>  (983) 
12.462018489837646

>  <fragmenstein_outcome>  (983) 
too moved

>  <fragmenstein_mode>  (983) 
expansion

>  <fragmenstein_error>  (983) 


$$$$
C76774-P97
     RDKit          3D

 36 39  0  0  0  0  0  0  0  0999 V2000
   -5.5826  -12.4975   12.7046 F   0  0  0  0  0  0  0  0  0  0  0  0
   -4.8917  -13.4404   13.3604 C   0  0  0  0  0  0  0  0  0  0  0  0
   -5.5271  -14.1931   14.3573 C   0  0  0  0  0  0  0  0  0  0  0  0
   -4.8277  -15.1626   15.0782 C   0  0  0  0  0  0  0  0  0  0  0  0
   -3.4770  -15.4214   14.8238 C   0  0  0  0  0  0  0  0  0  0  0  0
   -2.8825  -14.6232   13.8484 C   0  0  0  0  0  0  0  0  0  0  0  0
   -1.5802  -14.6422   13.4494 O   0  0  0  0  0  0  0  0  0  0  0  0
   -1.4726  -13.5683   12.6028 C   0  0  0  0  0  0  0  0  0  0  0  0
   -0.1962  -13.1961   12.3488 N   0  0  0  0  0  0  0  0  0  0  0  0
    0.1548  -11.7288   12.3767 C   0  0  0  0  0  0  0  0  0  0  0  0
    1.7968  -11.2958   13.0163 C   0  0  0  0  0  0  0  0  0  0  0  0
    2.8722  -10.7862   14.6295 C   0  0  0  0  0  0  0  0  0  0  0  0
    2.8215  -11.0357   16.0217 C   0  0  0  0  0  0  0  0  0  0  0  0
    3.6553  -10.0513   16.6806 C   0  0  0  0  0  0  0  0  0  0  0  0
    3.8212   -9.5944   18.0065 C   0  0  0  0  0  0  0  0  0  0  0  0
    4.5274   -8.4044   18.2517 C   0  0  0  0  0  0  0  0  0  0  0  0
    5.0819   -7.6859   17.2008 C   0  0  0  0  0  0  0  0  0  0  0  0
    5.0481   -8.1972   15.9000 C   0  0  0  0  0  0  0  0  0  0  0  0
    4.3308   -9.3736   15.6827 C   0  0  0  0  0  0  0  0  0  0  0  0
    4.0836  -10.0695   14.5217 N   0  0  0  0  0  0  0  0  0  0  0  0
   -2.6205  -13.0014   12.2985 N   0  0  0  0  0  0  0  0  0  0  0  0
   -3.5285  -13.6405   13.1157 C   0  0  0  0  0  0  0  0  0  0  0  0
   -6.5717  -13.9960   14.5845 H   0  0  0  0  0  0  0  0  0  0  0  0
   -5.3368  -15.7016   15.8717 H   0  0  0  0  0  0  0  0  0  0  0  0
   -2.9136  -16.1675   15.3713 H   0  0  0  0  0  0  0  0  0  0  0  0
    0.4661  -13.7857   12.8409 H   0  0  0  0  0  0  0  0  0  0  0  0
   -0.6634  -11.1659   12.8376 H   0  0  0  0  0  0  0  0  0  0  0  0
    0.2173  -11.4057   11.3466 H   0  0  0  0  0  0  0  0  0  0  0  0
    2.3730  -11.1480   12.0606 H   0  0  0  0  0  0  0  0  0  0  0  0
    1.4119  -12.1980   13.7532 H   0  0  0  0  0  0  0  0  0  0  0  0
    2.0997  -11.6757   16.5127 H   0  0  0  0  0  0  0  0  0  0  0  0
    3.3278  -10.1099   18.8253 H   0  0  0  0  0  0  0  0  0  0  0  0
    4.6049   -8.0279   19.2686 H   0  0  0  0  0  0  0  0  0  0  0  0
    5.5933   -6.7484   17.4022 H   0  0  0  0  0  0  0  0  0  0  0  0
    5.5532   -7.7078   15.0798 H   0  0  0  0  0  0  0  0  0  0  0  0
    4.3361   -9.6996   13.6363 H   0  0  0  0  0  0  0  0  0  0  0  0
  1  2  1  0
  2  3  2  0
  3  4  1  0
  4  5  2  0
  5  6  1  0
  6  7  1  0
  7  8  1  0
  8  9  1  0
  9 10  1  0
 10 11  1  0
 11 12  1  0
 12 13  2  0
 13 14  1  0
 14 15  2  0
 15 16  1  0
 16 17  2  0
 17 18  1  0
 18 19  2  0
 19 20  1  0
  8 21  2  0
 21 22  1  0
 22  2  1  0
 22  6  2  0
 20 12  1  0
 19 14  1  0
  3 23  1  0
  4 24  1  0
  5 25  1  0
  9 26  1  0
 10 27  1  0
 10 28  1  0
 11 29  1  0
 11 30  1  0
 13 31  1  0
 15 32  1  0
 16 33  1  0
 17 34  1  0
 18 35  1  0
 20 36  1  0
M  END
>  <Energy>  (984) 
173.64768762069497

>  <compound_id>  (984) 
76774

>  <target_id>  (984) 
1

>  <reference_id>  (984) 
97

>  <inspiration_ids>  (984) 
[2, 97]

>  <energy_score>  (984) 
130.26995127602646

>  <distance_score>  (984) 
12.062637773043052

>  <path>  (984) 
/opt/xchem-fragalysis-2/maxwin/BulkDock/SCRATCH/511022/C76774-P97/C76774-P97.minimised.mol

>  <scratch_subdir>  (984) 
/opt/xchem-fragalysis-2/maxwin/BulkDock/SCRATCH/511022/C76774-P97

>  <fragmenstein_runtime>  (984) 
10.433718919754028

>  <fragmenstein_outcome>  (984) 
too moved

>  <fragmenstein_mode>  (984) 
expansion

>  <fragmenstein_error>  (984) 


$$$$
C76775-P2
     RDKit          3D

 35 38  0  0  0  0  0  0  0  0999 V2000
    6.7648   -7.5296   12.9878 O   0  0  0  0  0  0  0  0  0  0  0  0
    7.7515   -7.0084   12.5356 C   0  0  0  0  0  0  0  0  0  0  0  0
    7.9418   -7.2503   10.6812 N   0  0  0  0  0  0  0  0  0  0  0  0
    6.7326   -7.9996    9.2961 C   0  0  0  0  0  0  0  0  0  0  0  0
    5.4982   -9.1486    8.1964 C   0  0  0  0  0  0  0  0  0  0  0  0
    4.5451   -8.7785    7.4059 N   0  0  0  0  0  0  0  0  0  0  0  0
    3.0106   -9.7140    7.1581 C   0  0  0  0  0  0  0  0  0  0  0  0
    1.8707   -9.8322    6.0805 C   0  0  0  0  0  0  0  0  0  0  0  0
    1.8014   -9.0193    5.0041 F   0  0  0  0  0  0  0  0  0  0  0  0
    1.1290  -10.9537    5.8912 C   0  0  0  0  0  0  0  0  0  0  0  0
    1.4994  -11.9207    6.7655 C   0  0  0  0  0  0  0  0  0  0  0  0
    2.5849  -11.8144    8.0517 C   0  0  0  0  0  0  0  0  0  0  0  0
    3.3462  -10.7320    8.1637 C   0  0  0  0  0  0  0  0  0  0  0  0
    4.6903  -10.4679    8.7537 O   0  0  0  0  0  0  0  0  0  0  0  0
    8.6775   -5.7849   14.0263 C   0  0  0  0  0  0  0  0  0  0  0  0
   10.3949   -4.8823   13.9981 C   0  0  0  0  0  0  0  0  0  0  0  0
   10.7527   -3.3853   14.1545 C   0  0  0  0  0  0  0  0  0  0  0  0
   11.9383   -2.6228   13.9925 C   0  0  0  0  0  0  0  0  0  0  0  0
   12.7909   -2.3998   15.0770 C   0  0  0  0  0  0  0  0  0  0  0  0
   12.5348   -3.0552   16.2615 C   0  0  0  0  0  0  0  0  0  0  0  0
   11.3502   -3.7811   16.3973 C   0  0  0  0  0  0  0  0  0  0  0  0
   10.3652   -3.7163   15.3590 C   0  0  0  0  0  0  0  0  0  0  0  0
    8.8605   -4.1971   14.9554 N   0  0  0  0  0  0  0  0  0  0  0  0
    8.8353   -6.8575   10.4104 H   0  0  0  0  0  0  0  0  0  0  0  0
    6.4540   -6.9349    9.0486 H   0  0  0  0  0  0  0  0  0  0  0  0
    5.8057   -7.6951    9.8896 H   0  0  0  0  0  0  0  0  0  0  0  0
    0.4492  -11.0937    5.0667 H   0  0  0  0  0  0  0  0  0  0  0  0
    1.0458  -12.9078    6.5818 H   0  0  0  0  0  0  0  0  0  0  0  0
    2.8221  -12.6388    8.7281 H   0  0  0  0  0  0  0  0  0  0  0  0
   11.0771   -5.1063   13.1564 H   0  0  0  0  0  0  0  0  0  0  0  0
   12.1681   -2.1714   13.0374 H   0  0  0  0  0  0  0  0  0  0  0  0
   13.6952   -1.8129   14.9475 H   0  0  0  0  0  0  0  0  0  0  0  0
   13.2597   -3.0399   17.0702 H   0  0  0  0  0  0  0  0  0  0  0  0
   11.2501   -4.4276   17.2526 H   0  0  0  0  0  0  0  0  0  0  0  0
    8.3450   -4.4506   15.7578 H   0  0  0  0  0  0  0  0  0  0  0  0
  1  2  2  0
  2  3  1  0
  3  4  1  0
  4  5  1  0
  5  6  2  0
  6  7  1  0
  7  8  2  0
  8  9  1  0
  8 10  1  0
 10 11  2  0
 11 12  1  0
 12 13  2  0
 13 14  1  0
  2 15  1  0
 15 16  2  0
 16 17  1  0
 17 18  2  0
 18 19  1  0
 19 20  2  0
 20 21  1  0
 21 22  2  0
 22 23  1  0
 14  5  1  0
 23 15  1  0
 13  7  1  0
 22 17  1  0
  3 24  1  0
  4 25  1  0
  4 26  1  0
 10 27  1  0
 11 28  1  0
 12 29  1  0
 16 30  1  0
 18 31  1  0
 19 32  1  0
 20 33  1  0
 21 34  1  0
 23 35  1  0
M  END
>  <Energy>  (985) 
1013.6178455674068

>  <compound_id>  (985) 
76775

>  <target_id>  (985) 
1

>  <reference_id>  (985) 
2

>  <inspiration_ids>  (985) 
[2, 97]

>  <energy_score>  (985) 
974.979969588335

>  <distance_score>  (985) 
12.540107368347192

>  <path>  (985) 
/opt/xchem-fragalysis-2/maxwin/BulkDock/SCRATCH/511022/C76775-P2/C76775-P2.minimised.mol

>  <scratch_subdir>  (985) 
/opt/xchem-fragalysis-2/maxwin/BulkDock/SCRATCH/511022/C76775-P2

>  <fragmenstein_runtime>  (985) 
12.964477777481079

>  <fragmenstein_outcome>  (985) 
too moved

>  <fragmenstein_mode>  (985) 
expansion

>  <fragmenstein_error>  (985) 


$$$$
C76775-P97
     RDKit          3D

 35 38  0  0  0  0  0  0  0  0999 V2000
    1.5290  -10.1610    6.6683 O   0  0  0  0  0  0  0  0  0  0  0  0
    1.7204  -11.2487    7.1355 C   0  0  0  0  0  0  0  0  0  0  0  0
    1.3525  -12.6169    6.6088 N   0  0  0  0  0  0  0  0  0  0  0  0
    0.7405  -13.0259    5.3285 C   0  0  0  0  0  0  0  0  0  0  0  0
    0.0468  -14.4069    5.3003 C   0  0  0  0  0  0  0  0  0  0  0  0
   -1.0021  -14.7886    4.5756 N   0  0  0  0  0  0  0  0  0  0  0  0
   -1.1816  -16.1286    4.8813 C   0  0  0  0  0  0  0  0  0  0  0  0
   -2.0543  -17.1159    4.3971 C   0  0  0  0  0  0  0  0  0  0  0  0
   -2.9595  -16.8392    3.4477 F   0  0  0  0  0  0  0  0  0  0  0  0
   -1.9704  -18.4236    4.9013 C   0  0  0  0  0  0  0  0  0  0  0  0
   -1.0834  -18.7381    5.9334 C   0  0  0  0  0  0  0  0  0  0  0  0
   -0.1978  -17.7738    6.4296 C   0  0  0  0  0  0  0  0  0  0  0  0
   -0.2632  -16.5061    5.8453 C   0  0  0  0  0  0  0  0  0  0  0  0
    0.5544  -15.4275    6.0889 O   0  0  0  0  0  0  0  0  0  0  0  0
    2.6670  -11.2257    8.5706 C   0  0  0  0  0  0  0  0  0  0  0  0
    2.7406  -10.7143   10.0260 C   0  0  0  0  0  0  0  0  0  0  0  0
    4.0162  -10.1055    9.9445 C   0  0  0  0  0  0  0  0  0  0  0  0
    4.5056   -8.4990    9.9030 C   0  0  0  0  0  0  0  0  0  0  0  0
    5.4983   -8.1687    8.9410 C   0  0  0  0  0  0  0  0  0  0  0  0
    6.2312   -9.3346    8.1751 C   0  0  0  0  0  0  0  0  0  0  0  0
    5.9334  -10.6355    8.4590 C   0  0  0  0  0  0  0  0  0  0  0  0
    4.5834  -10.8507    8.8950 C   0  0  0  0  0  0  0  0  0  0  0  0
    3.7241  -11.9228    9.0228 N   0  0  0  0  0  0  0  0  0  0  0  0
    1.5898  -13.3173    7.3014 H   0  0  0  0  0  0  0  0  0  0  0  0
    1.5489  -13.0362    4.5900 H   0  0  0  0  0  0  0  0  0  0  0  0
    0.0310  -12.2472    5.0317 H   0  0  0  0  0  0  0  0  0  0  0  0
   -2.6237  -19.1896    4.4924 H   0  0  0  0  0  0  0  0  0  0  0  0
   -1.0570  -19.7499    6.3355 H   0  0  0  0  0  0  0  0  0  0  0  0
    0.5302  -18.0070    7.1980 H   0  0  0  0  0  0  0  0  0  0  0  0
    1.8987  -10.2749   10.5615 H   0  0  0  0  0  0  0  0  0  0  0  0
    4.0558   -7.8827   10.6522 H   0  0  0  0  0  0  0  0  0  0  0  0
    6.0969   -7.2960    9.2716 H   0  0  0  0  0  0  0  0  0  0  0  0
    7.2735   -9.3761    7.9438 H   0  0  0  0  0  0  0  0  0  0  0  0
    6.7138  -11.3919    8.4772 H   0  0  0  0  0  0  0  0  0  0  0  0
    3.9155  -12.9043    8.9205 H   0  0  0  0  0  0  0  0  0  0  0  0
  1  2  2  0
  2  3  1  0
  3  4  1  0
  4  5  1  0
  5  6  2  0
  6  7  1  0
  7  8  2  0
  8  9  1  0
  8 10  1  0
 10 11  2  0
 11 12  1  0
 12 13  2  0
 13 14  1  0
  2 15  1  0
 15 16  2  0
 16 17  1  0
 17 18  2  0
 18 19  1  0
 19 20  2  0
 20 21  1  0
 21 22  2  0
 22 23  1  0
 14  5  1  0
 23 15  1  0
 13  7  1  0
 22 17  1  0
  3 24  1  0
  4 25  1  0
  4 26  1  0
 10 27  1  0
 11 28  1  0
 12 29  1  0
 16 30  1  0
 18 31  1  0
 19 32  1  0
 20 33  1  0
 21 34  1  0
 23 35  1  0
M  END
>  <Energy>  (986) 
224.91974629259295

>  <compound_id>  (986) 
76775

>  <target_id>  (986) 
1

>  <reference_id>  (986) 
97

>  <inspiration_ids>  (986) 
[2, 97]

>  <energy_score>  (986) 
186.2818703135468

>  <distance_score>  (986) 
12.588060421574209

>  <path>  (986) 
/opt/xchem-fragalysis-2/maxwin/BulkDock/SCRATCH/511022/C76775-P97/C76775-P97.minimised.mol

>  <scratch_subdir>  (986) 
/opt/xchem-fragalysis-2/maxwin/BulkDock/SCRATCH/511022/C76775-P97

>  <fragmenstein_runtime>  (986) 
13.91823124885559

>  <fragmenstein_outcome>  (986) 
too moved

>  <fragmenstein_mode>  (986) 
expansion

>  <fragmenstein_error>  (986) 


$$$$
C14450-P2
     RDKit          3D

 34 37  0  0  0  0  0  0  0  0999 V2000
   -0.9752  -17.6815    8.9051 O   0  0  0  0  0  0  0  0  0  0  0  0
   -1.6100  -16.9125    9.6088 C   0  0  0  0  0  0  0  0  0  0  0  0
   -2.9141  -16.6367    9.4523 O   0  0  0  0  0  0  0  0  0  0  0  0
   -3.9532  -17.6675    8.7209 C   0  0  0  0  0  0  0  0  0  0  0  0
   -6.0355  -18.0145    8.8208 C   0  0  0  0  0  0  0  0  0  0  0  0
   -7.2308  -17.7478    8.1069 N   0  0  0  0  0  0  0  0  0  0  0  0
   -8.3456  -18.9836    8.2682 C   0  0  0  0  0  0  0  0  0  0  0  0
   -9.2792  -19.6303    7.4238 C   0  0  0  0  0  0  0  0  0  0  0  0
   -9.4250  -19.2851    6.1363 F   0  0  0  0  0  0  0  0  0  0  0  0
   -9.8524  -20.8571    7.8153 C   0  0  0  0  0  0  0  0  0  0  0  0
   -9.4631  -21.4970    8.9914 C   0  0  0  0  0  0  0  0  0  0  0  0
   -8.4311  -20.9706    9.7642 C   0  0  0  0  0  0  0  0  0  0  0  0
   -7.8524  -19.7902    9.2859 C   0  0  0  0  0  0  0  0  0  0  0  0
   -6.6847  -19.1823    9.7457 O   0  0  0  0  0  0  0  0  0  0  0  0
   -1.0513  -16.2351   10.8311 C   0  0  0  0  0  0  0  0  0  0  0  0
   -0.2522  -17.0740   11.6343 C   0  0  0  0  0  0  0  0  0  0  0  0
    0.0135  -16.7521   12.9531 C   0  0  0  0  0  0  0  0  0  0  0  0
   -0.4287  -15.5471   13.4744 C   0  0  0  0  0  0  0  0  0  0  0  0
   -0.9074  -14.5840   12.5989 C   0  0  0  0  0  0  0  0  0  0  0  0
   -1.1665  -13.2591   12.8381 N   0  0  0  0  0  0  0  0  0  0  0  0
   -1.8207  -12.7088   11.7865 C   0  0  0  0  0  0  0  0  0  0  0  0
   -2.0300  -13.7349   10.8879 C   0  0  0  0  0  0  0  0  0  0  0  0
   -1.3180  -14.9064   11.3060 C   0  0  0  0  0  0  0  0  0  0  0  0
   -3.7997  -17.1320    7.7946 H   0  0  0  0  0  0  0  0  0  0  0  0
   -3.4125  -18.6423    8.8171 H   0  0  0  0  0  0  0  0  0  0  0  0
  -10.5488  -21.3421    7.1358 H   0  0  0  0  0  0  0  0  0  0  0  0
   -9.8989  -22.4553    9.2640 H   0  0  0  0  0  0  0  0  0  0  0  0
   -8.0101  -21.4866   10.6201 H   0  0  0  0  0  0  0  0  0  0  0  0
    0.0190  -18.0670   11.2762 H   0  0  0  0  0  0  0  0  0  0  0  0
    0.5027  -17.4735   13.6028 H   0  0  0  0  0  0  0  0  0  0  0  0
   -0.3435  -15.3549   14.5375 H   0  0  0  0  0  0  0  0  0  0  0  0
   -0.9982  -12.8359   13.7355 H   0  0  0  0  0  0  0  0  0  0  0  0
   -2.1614  -11.6841   11.7936 H   0  0  0  0  0  0  0  0  0  0  0  0
   -2.6213  -13.6373    9.9900 H   0  0  0  0  0  0  0  0  0  0  0  0
  1  2  2  0
  2  3  1  0
  3  4  1  0
  4  5  1  0
  5  6  2  0
  6  7  1  0
  7  8  2  0
  8  9  1  0
  8 10  1  0
 10 11  2  0
 11 12  1  0
 12 13  2  0
 13 14  1  0
  2 15  1  0
 15 16  2  0
 16 17  1  0
 17 18  2  0
 18 19  1  0
 19 20  1  0
 20 21  1  0
 21 22  2  0
 22 23  1  0
 14  5  1  0
 23 15  1  0
 13  7  1  0
 23 19  2  0
  4 24  1  0
  4 25  1  0
 10 26  1  0
 11 27  1  0
 12 28  1  0
 16 29  1  0
 17 30  1  0
 18 31  1  0
 20 32  1  0
 21 33  1  0
 22 34  1  0
M  END
>  <Energy>  (987) 
307.83723333926974

>  <compound_id>  (987) 
14450

>  <target_id>  (987) 
1

>  <reference_id>  (987) 
2

>  <inspiration_ids>  (987) 
[2, 97]

>  <energy_score>  (987) 
198.5819625648898

>  <distance_score>  (987) 
14.747458428823814

>  <path>  (987) 
/opt/xchem-fragalysis-2/maxwin/BulkDock/SCRATCH/511022/C14450-P2/C14450-P2.minimised.mol

>  <scratch_subdir>  (987) 
/opt/xchem-fragalysis-2/maxwin/BulkDock/SCRATCH/511022/C14450-P2

>  <fragmenstein_runtime>  (987) 
10.663450241088867

>  <fragmenstein_outcome>  (987) 
too moved

>  <fragmenstein_mode>  (987) 
expansion

>  <fragmenstein_error>  (987) 


$$$$
C14450-P97
     RDKit          3D

 34 37  0  0  0  0  0  0  0  0999 V2000
    2.8762  -12.4765   10.1461 O   0  0  0  0  0  0  0  0  0  0  0  0
    2.2124  -12.1916   11.1602 C   0  0  0  0  0  0  0  0  0  0  0  0
    0.7137  -13.2724   11.4514 O   0  0  0  0  0  0  0  0  0  0  0  0
   -0.4089  -14.9351   11.3129 C   0  0  0  0  0  0  0  0  0  0  0  0
   -1.5640  -16.3465   10.3851 C   0  0  0  0  0  0  0  0  0  0  0  0
   -2.6847  -16.5775    9.3826 N   0  0  0  0  0  0  0  0  0  0  0  0
   -3.6770  -18.1342    9.2252 C   0  0  0  0  0  0  0  0  0  0  0  0
   -5.6238  -18.3466    9.2510 C   0  0  0  0  0  0  0  0  0  0  0  0
   -6.5394  -18.2306    8.3366 F   0  0  0  0  0  0  0  0  0  0  0  0
   -6.6035  -19.0745   10.8114 C   0  0  0  0  0  0  0  0  0  0  0  0
   -5.5571  -19.7785   12.0386 C   0  0  0  0  0  0  0  0  0  0  0  0
   -3.7744  -19.7447   11.8289 C   0  0  0  0  0  0  0  0  0  0  0  0
   -2.8666  -18.8120   10.5634 C   0  0  0  0  0  0  0  0  0  0  0  0
   -1.5546  -17.8842   10.9205 O   0  0  0  0  0  0  0  0  0  0  0  0
    3.1152  -10.7507   12.2243 C   0  0  0  0  0  0  0  0  0  0  0  0
    3.5005  -10.4122   13.7250 C   0  0  0  0  0  0  0  0  0  0  0  0
    3.8263   -8.6517   14.0270 C   0  0  0  0  0  0  0  0  0  0  0  0
    4.2158   -7.8859   13.1200 C   0  0  0  0  0  0  0  0  0  0  0  0
    4.8997   -8.7568   13.7491 C   0  0  0  0  0  0  0  0  0  0  0  0
    6.2342   -8.5863   14.0098 N   0  0  0  0  0  0  0  0  0  0  0  0
    6.3971  -10.3135   14.0211 C   0  0  0  0  0  0  0  0  0  0  0  0
    5.5374  -11.2801   13.6717 C   0  0  0  0  0  0  0  0  0  0  0  0
    4.4880  -10.4864   13.2350 C   0  0  0  0  0  0  0  0  0  0  0  0
    0.4424  -15.4406   10.8599 H   0  0  0  0  0  0  0  0  0  0  0  0
   -1.1594  -14.2414   10.9276 H   0  0  0  0  0  0  0  0  0  0  0  0
   -7.5419  -19.6482   10.7191 H   0  0  0  0  0  0  0  0  0  0  0  0
   -6.0985  -20.5713   12.5241 H   0  0  0  0  0  0  0  0  0  0  0  0
   -3.1631  -20.0918   12.6638 H   0  0  0  0  0  0  0  0  0  0  0  0
    3.3132  -10.9813   14.6615 H   0  0  0  0  0  0  0  0  0  0  0  0
    3.2714   -8.1689   14.8807 H   0  0  0  0  0  0  0  0  0  0  0  0
    4.3266   -6.9882   12.5951 H   0  0  0  0  0  0  0  0  0  0  0  0
    7.0548   -7.9976   14.1142 H   0  0  0  0  0  0  0  0  0  0  0  0
    7.4500  -10.3884   14.3521 H   0  0  0  0  0  0  0  0  0  0  0  0
    5.6933  -12.3444   13.6408 H   0  0  0  0  0  0  0  0  0  0  0  0
  1  2  2  0
  2  3  1  0
  3  4  1  0
  4  5  1  0
  5  6  2  0
  6  7  1  0
  7  8  2  0
  8  9  1  0
  8 10  1  0
 10 11  2  0
 11 12  1  0
 12 13  2  0
 13 14  1  0
  2 15  1  0
 15 16  2  0
 16 17  1  0
 17 18  2  0
 18 19  1  0
 19 20  1  0
 20 21  1  0
 21 22  2  0
 22 23  1  0
 14  5  1  0
 23 15  1  0
 13  7  1  0
 23 19  2  0
  4 24  1  0
  4 25  1  0
 10 26  1  0
 11 27  1  0
 12 28  1  0
 16 29  1  0
 17 30  1  0
 18 31  1  0
 20 32  1  0
 21 33  1  0
 22 34  1  0
M  END
>  <Energy>  (988) 
1650.3234872347516

>  <compound_id>  (988) 
14450

>  <target_id>  (988) 
1

>  <reference_id>  (988) 
97

>  <inspiration_ids>  (988) 
[2, 97]

>  <energy_score>  (988) 
1541.0682164603686

>  <distance_score>  (988) 
10.51189525969146

>  <path>  (988) 
/opt/xchem-fragalysis-2/maxwin/BulkDock/SCRATCH/511022/C14450-P97/C14450-P97.minimised.mol

>  <scratch_subdir>  (988) 
/opt/xchem-fragalysis-2/maxwin/BulkDock/SCRATCH/511022/C14450-P97

>  <fragmenstein_runtime>  (988) 
10.996109962463379

>  <fragmenstein_outcome>  (988) 
too moved

>  <fragmenstein_mode>  (988) 
expansion

>  <fragmenstein_error>  (988) 


$$$$
C76777-P2
     RDKit          3D

 34 37  0  0  0  0  0  0  0  0999 V2000
    2.6410   -8.8266    2.0451 O   0  0  0  0  0  0  0  0  0  0  0  0
    2.1927   -8.2523    3.0347 C   0  0  0  0  0  0  0  0  0  0  0  0
    1.0933   -8.7878    3.7508 O   0  0  0  0  0  0  0  0  0  0  0  0
    0.5890  -10.0456    3.1094 C   0  0  0  0  0  0  0  0  0  0  0  0
   -0.4833  -10.9402    3.8268 C   0  0  0  0  0  0  0  0  0  0  0  0
   -1.7698  -10.7235    4.1010 N   0  0  0  0  0  0  0  0  0  0  0  0
   -2.3277  -11.9904    4.3244 C   0  0  0  0  0  0  0  0  0  0  0  0
   -3.6296  -12.4407    4.6365 C   0  0  0  0  0  0  0  0  0  0  0  0
   -4.6363  -11.5701    4.7996 F   0  0  0  0  0  0  0  0  0  0  0  0
   -3.8911  -13.8155    4.7727 C   0  0  0  0  0  0  0  0  0  0  0  0
   -2.8644  -14.7473    4.5961 C   0  0  0  0  0  0  0  0  0  0  0  0
   -1.5548  -14.3314    4.3105 C   0  0  0  0  0  0  0  0  0  0  0  0
   -1.3441  -12.9530    4.1853 C   0  0  0  0  0  0  0  0  0  0  0  0
   -0.1708  -12.3048    3.8842 O   0  0  0  0  0  0  0  0  0  0  0  0
    2.8749   -7.0348    3.5625 C   0  0  0  0  0  0  0  0  0  0  0  0
    2.4719   -5.8058    4.0959 C   0  0  0  0  0  0  0  0  0  0  0  0
    3.6391   -5.0467    4.5383 C   0  0  0  0  0  0  0  0  0  0  0  0
    3.8502   -3.8815    5.3259 C   0  0  0  0  0  0  0  0  0  0  0  0
    5.1510   -3.5006    5.6983 C   0  0  0  0  0  0  0  0  0  0  0  0
    6.2444   -4.2274    5.2455 C   0  0  0  0  0  0  0  0  0  0  0  0
    6.0632   -5.3653    4.4427 C   0  0  0  0  0  0  0  0  0  0  0  0
    4.7512   -5.7800    4.1510 C   0  0  0  0  0  0  0  0  0  0  0  0
    4.2719   -6.8955    3.4860 N   0  0  0  0  0  0  0  0  0  0  0  0
    1.4540  -10.6967    2.9307 H   0  0  0  0  0  0  0  0  0  0  0  0
    0.1530   -9.7539    2.1462 H   0  0  0  0  0  0  0  0  0  0  0  0
   -4.9005  -14.1393    5.0086 H   0  0  0  0  0  0  0  0  0  0  0  0
   -3.0688  -15.8098    4.6725 H   0  0  0  0  0  0  0  0  0  0  0  0
   -0.7423  -15.0367    4.1778 H   0  0  0  0  0  0  0  0  0  0  0  0
    1.4423   -5.5199    4.2720 H   0  0  0  0  0  0  0  0  0  0  0  0
    2.9973   -3.3096    5.6806 H   0  0  0  0  0  0  0  0  0  0  0  0
    5.3006   -2.6211    6.3197 H   0  0  0  0  0  0  0  0  0  0  0  0
    7.2508   -3.9105    5.5096 H   0  0  0  0  0  0  0  0  0  0  0  0
    6.9201   -5.9346    4.0939 H   0  0  0  0  0  0  0  0  0  0  0  0
    4.8650   -7.5863    3.0500 H   0  0  0  0  0  0  0  0  0  0  0  0
  1  2  2  0
  2  3  1  0
  3  4  1  0
  4  5  1  0
  5  6  2  0
  6  7  1  0
  7  8  2  0
  8  9  1  0
  8 10  1  0
 10 11  2  0
 11 12  1  0
 12 13  2  0
 13 14  1  0
  2 15  1  0
 15 16  2  0
 16 17  1  0
 17 18  2  0
 18 19  1  0
 19 20  2  0
 20 21  1  0
 21 22  2  0
 22 23  1  0
 14  5  1  0
 23 15  1  0
 13  7  1  0
 22 17  1  0
  4 24  1  0
  4 25  1  0
 10 26  1  0
 11 27  1  0
 12 28  1  0
 16 29  1  0
 18 30  1  0
 19 31  1  0
 20 32  1  0
 21 33  1  0
 23 34  1  0
M  END
>  <Energy>  (989) 
65.560359827852253

>  <compound_id>  (989) 
76777

>  <target_id>  (989) 
1

>  <reference_id>  (989) 
2

>  <inspiration_ids>  (989) 
[2, 97]

>  <energy_score>  (989) 
-3.2963998334896587

>  <distance_score>  (989) 
13.96891571159695

>  <path>  (989) 
/opt/xchem-fragalysis-2/maxwin/BulkDock/SCRATCH/511022/C76777-P2/C76777-P2.minimised.mol

>  <scratch_subdir>  (989) 
/opt/xchem-fragalysis-2/maxwin/BulkDock/SCRATCH/511022/C76777-P2

>  <fragmenstein_runtime>  (989) 
9.669111728668213

>  <fragmenstein_outcome>  (989) 
too moved

>  <fragmenstein_mode>  (989) 
expansion

>  <fragmenstein_error>  (989) 


$$$$
C76777-P97
     RDKit          3D

 34 37  0  0  0  0  0  0  0  0999 V2000
   -0.9052  -17.2436   11.4845 O   0  0  0  0  0  0  0  0  0  0  0  0
   -0.5456  -17.3360   10.3156 C   0  0  0  0  0  0  0  0  0  0  0  0
   -1.4677  -17.5214    9.2816 O   0  0  0  0  0  0  0  0  0  0  0  0
   -2.1936  -18.7771    9.5029 C   0  0  0  0  0  0  0  0  0  0  0  0
   -3.8002  -18.9909    9.2466 C   0  0  0  0  0  0  0  0  0  0  0  0
   -4.6770  -18.0081    8.8285 N   0  0  0  0  0  0  0  0  0  0  0  0
   -6.2917  -18.3167    9.4268 C   0  0  0  0  0  0  0  0  0  0  0  0
   -7.6272  -18.7297    8.8348 C   0  0  0  0  0  0  0  0  0  0  0  0
   -7.8375  -17.8288    7.9194 F   0  0  0  0  0  0  0  0  0  0  0  0
   -8.8380  -19.9903    9.0700 C   0  0  0  0  0  0  0  0  0  0  0  0
   -8.8674  -20.6398   10.2900 C   0  0  0  0  0  0  0  0  0  0  0  0
   -7.8590  -20.2317   11.2036 C   0  0  0  0  0  0  0  0  0  0  0  0
   -6.5056  -19.4496   10.8419 C   0  0  0  0  0  0  0  0  0  0  0  0
   -4.8713  -20.2150   10.0386 O   0  0  0  0  0  0  0  0  0  0  0  0
    0.8975  -17.3598    9.9969 C   0  0  0  0  0  0  0  0  0  0  0  0
    1.7238  -17.0380    8.9217 C   0  0  0  0  0  0  0  0  0  0  0  0
    3.1087  -17.1682    9.3199 C   0  0  0  0  0  0  0  0  0  0  0  0
    4.3634  -16.9753    8.7053 C   0  0  0  0  0  0  0  0  0  0  0  0
    5.5572  -17.1083    9.4483 C   0  0  0  0  0  0  0  0  0  0  0  0
    5.5234  -17.5193   10.7732 C   0  0  0  0  0  0  0  0  0  0  0  0
    4.3004  -17.8402   11.3702 C   0  0  0  0  0  0  0  0  0  0  0  0
    3.1149  -17.6302   10.6268 C   0  0  0  0  0  0  0  0  0  0  0  0
    1.7921  -17.7277   11.0041 N   0  0  0  0  0  0  0  0  0  0  0  0
   -2.0102  -19.0670   10.5466 H   0  0  0  0  0  0  0  0  0  0  0  0
   -1.6879  -19.4270    8.7735 H   0  0  0  0  0  0  0  0  0  0  0  0
   -9.6128  -20.0583    8.3109 H   0  0  0  0  0  0  0  0  0  0  0  0
   -9.4968  -21.4808   10.5362 H   0  0  0  0  0  0  0  0  0  0  0  0
   -7.7081  -20.9298   12.0241 H   0  0  0  0  0  0  0  0  0  0  0  0
    1.3816  -16.7102    7.9486 H   0  0  0  0  0  0  0  0  0  0  0  0
    4.4055  -16.7293    7.6471 H   0  0  0  0  0  0  0  0  0  0  0  0
    6.5162  -16.9169    8.9693 H   0  0  0  0  0  0  0  0  0  0  0  0
    6.4480  -17.6264   11.3341 H   0  0  0  0  0  0  0  0  0  0  0  0
    4.2612  -18.1764   12.4019 H   0  0  0  0  0  0  0  0  0  0  0  0
    1.4870  -17.9868   11.9332 H   0  0  0  0  0  0  0  0  0  0  0  0
  1  2  2  0
  2  3  1  0
  3  4  1  0
  4  5  1  0
  5  6  2  0
  6  7  1  0
  7  8  2  0
  8  9  1  0
  8 10  1  0
 10 11  2  0
 11 12  1  0
 12 13  2  0
 13 14  1  0
  2 15  1  0
 15 16  2  0
 16 17  1  0
 17 18  2  0
 18 19  1  0
 19 20  2  0
 20 21  1  0
 21 22  2  0
 22 23  1  0
 14  5  1  0
 23 15  1  0
 13  7  1  0
 22 17  1  0
  4 24  1  0
  4 25  1  0
 10 26  1  0
 11 27  1  0
 12 28  1  0
 16 29  1  0
 18 30  1  0
 19 31  1  0
 20 32  1  0
 21 33  1  0
 23 34  1  0
M  END
>  <Energy>  (990) 
438.84603617759245

>  <compound_id>  (990) 
76777

>  <target_id>  (990) 
1

>  <reference_id>  (990) 
97

>  <inspiration_ids>  (990) 
[2, 97]

>  <energy_score>  (990) 
369.9892765162542

>  <distance_score>  (990) 
14.452553982558205

>  <path>  (990) 
/opt/xchem-fragalysis-2/maxwin/BulkDock/SCRATCH/511022/C76777-P97/C76777-P97.minimised.mol

>  <scratch_subdir>  (990) 
/opt/xchem-fragalysis-2/maxwin/BulkDock/SCRATCH/511022/C76777-P97

>  <fragmenstein_runtime>  (990) 
12.750587940216064

>  <fragmenstein_outcome>  (990) 
too moved

>  <fragmenstein_mode>  (990) 
expansion

>  <fragmenstein_error>  (990) 


$$$$
C76779-P2
     RDKit          3D

 37 40  0  0  0  0  0  0  0  0999 V2000
   -2.4370  -17.9815    8.7046 O   0  0  0  0  0  0  0  0  0  0  0  0
   -2.4465  -16.5596    8.6850 C   0  0  0  0  0  0  0  0  0  0  0  0
   -2.0544  -15.8980   10.0211 C   0  0  0  0  0  0  0  0  0  0  0  0
   -1.1371  -16.5955   10.7975 C   0  0  0  0  0  0  0  0  0  0  0  0
   -0.3659  -15.9204   11.7344 C   0  0  0  0  0  0  0  0  0  0  0  0
   -0.4251  -14.5193   11.8270 C   0  0  0  0  0  0  0  0  0  0  0  0
    0.4833  -13.6255   12.3365 N   0  0  0  0  0  0  0  0  0  0  0  0
    0.2554  -12.4361   11.7834 C   0  0  0  0  0  0  0  0  0  0  0  0
    1.1038  -11.2333   11.6375 N   0  0  0  0  0  0  0  0  0  0  0  0
    2.8364  -10.7229   11.5956 C   0  0  0  0  0  0  0  0  0  0  0  0
    4.0762  -10.1081   13.0289 C   0  0  0  0  0  0  0  0  0  0  0  0
    4.9098  -10.8604   13.6243 C   0  0  0  0  0  0  0  0  0  0  0  0
    4.0755  -10.1974   14.2861 C   0  0  0  0  0  0  0  0  0  0  0  0
    3.8224   -8.2825   14.1712 C   0  0  0  0  0  0  0  0  0  0  0  0
    4.3023   -7.1902   13.4489 C   0  0  0  0  0  0  0  0  0  0  0  0
    4.9994   -6.4765   12.4673 C   0  0  0  0  0  0  0  0  0  0  0  0
    6.2333   -7.1028   12.4040 C   0  0  0  0  0  0  0  0  0  0  0  0
    6.1582   -7.8840   13.5724 N   0  0  0  0  0  0  0  0  0  0  0  0
    4.7559   -8.4098   13.3639 C   0  0  0  0  0  0  0  0  0  0  0  0
   -1.0816  -12.4637   11.2534 O   0  0  0  0  0  0  0  0  0  0  0  0
   -1.4218  -13.8409   11.1699 C   0  0  0  0  0  0  0  0  0  0  0  0
   -2.3624  -14.5189   10.3501 C   0  0  0  0  0  0  0  0  0  0  0  0
   -3.0795  -18.3043    9.3652 H   0  0  0  0  0  0  0  0  0  0  0  0
   -1.7158  -16.3266    7.9124 H   0  0  0  0  0  0  0  0  0  0  0  0
   -3.3777  -16.1804    8.2699 H   0  0  0  0  0  0  0  0  0  0  0  0
   -0.9099  -17.6433   10.5999 H   0  0  0  0  0  0  0  0  0  0  0  0
    0.4375  -16.4778   12.1852 H   0  0  0  0  0  0  0  0  0  0  0  0
    0.6212  -10.3797   11.8373 H   0  0  0  0  0  0  0  0  0  0  0  0
    3.3288  -11.4457   10.9211 H   0  0  0  0  0  0  0  0  0  0  0  0
    2.7747   -9.8710   10.9353 H   0  0  0  0  0  0  0  0  0  0  0  0
    5.2170  -11.8659   13.7179 H   0  0  0  0  0  0  0  0  0  0  0  0
    3.7358  -10.7865   15.1777 H   0  0  0  0  0  0  0  0  0  0  0  0
    3.2644   -7.8887   15.0748 H   0  0  0  0  0  0  0  0  0  0  0  0
    4.6990   -5.5697   11.9559 H   0  0  0  0  0  0  0  0  0  0  0  0
    7.1383   -7.1284   11.8098 H   0  0  0  0  0  0  0  0  0  0  0  0
    6.9004   -8.5401   13.7466 H   0  0  0  0  0  0  0  0  0  0  0  0
   -3.0485  -13.9346    9.7462 H   0  0  0  0  0  0  0  0  0  0  0  0
  1  2  1  0
  2  3  1  0
  3  4  2  0
  4  5  1  0
  5  6  2  0
  6  7  1  0
  7  8  2  0
  8  9  1  0
  9 10  1  0
 10 11  1  0
 11 12  2  0
 12 13  1  0
 13 14  2  0
 14 15  1  0
 15 16  1  0
 16 17  2  0
 17 18  1  0
 18 19  1  0
  8 20  1  0
 20 21  1  0
 21 22  2  0
 22  3  1  0
 21  6  1  0
 19 11  1  0
 19 15  2  0
  1 23  1  0
  2 24  1  0
  2 25  1  0
  4 26  1  0
  5 27  1  0
  9 28  1  0
 10 29  1  0
 10 30  1  0
 12 31  1  0
 13 32  1  0
 14 33  1  0
 16 34  1  0
 17 35  1  0
 18 36  1  0
 22 37  1  0
M  END
>  <Energy>  (991) 
660.78341351207143

>  <compound_id>  (991) 
76779

>  <target_id>  (991) 
1

>  <reference_id>  (991) 
2

>  <inspiration_ids>  (991) 
[2, 97]

>  <energy_score>  (991) 
644.0149633956519

>  <distance_score>  (991) 
11.732286472224382

>  <path>  (991) 
/opt/xchem-fragalysis-2/maxwin/BulkDock/SCRATCH/511022/C76779-P2/C76779-P2.minimised.mol

>  <scratch_subdir>  (991) 
/opt/xchem-fragalysis-2/maxwin/BulkDock/SCRATCH/511022/C76779-P2

>  <fragmenstein_runtime>  (991) 
9.941121101379395

>  <fragmenstein_outcome>  (991) 
too moved

>  <fragmenstein_mode>  (991) 
expansion

>  <fragmenstein_error>  (991) 


$$$$
C76779-P97
     RDKit          3D

 37 40  0  0  0  0  0  0  0  0999 V2000
   -2.1641  -14.8514    4.7292 O   0  0  0  0  0  0  0  0  0  0  0  0
   -1.7513  -13.9431    3.7211 C   0  0  0  0  0  0  0  0  0  0  0  0
   -1.1469  -12.6922    4.3070 C   0  0  0  0  0  0  0  0  0  0  0  0
   -1.7936  -11.4513    4.1511 C   0  0  0  0  0  0  0  0  0  0  0  0
   -1.1974  -10.2360    4.5751 C   0  0  0  0  0  0  0  0  0  0  0  0
    0.0652  -10.2678    5.1966 C   0  0  0  0  0  0  0  0  0  0  0  0
    0.9346   -9.2687    5.6890 N   0  0  0  0  0  0  0  0  0  0  0  0
    1.9584   -9.9044    6.2573 C   0  0  0  0  0  0  0  0  0  0  0  0
    3.2660   -9.5312    7.0891 N   0  0  0  0  0  0  0  0  0  0  0  0
    4.9445   -8.5333    7.6633 C   0  0  0  0  0  0  0  0  0  0  0  0
    5.4344   -6.5720    7.2821 C   0  0  0  0  0  0  0  0  0  0  0  0
    5.3884   -6.2216    5.7964 C   0  0  0  0  0  0  0  0  0  0  0  0
    5.7616   -5.0117    5.2135 C   0  0  0  0  0  0  0  0  0  0  0  0
    6.2321   -3.9777    5.9967 C   0  0  0  0  0  0  0  0  0  0  0  0
    6.3383   -4.1422    7.3804 C   0  0  0  0  0  0  0  0  0  0  0  0
    6.7239   -3.1980    8.3556 C   0  0  0  0  0  0  0  0  0  0  0  0
    6.5586   -3.8117    9.5547 C   0  0  0  0  0  0  0  0  0  0  0  0
    6.3468   -5.1433    9.3290 N   0  0  0  0  0  0  0  0  0  0  0  0
    5.9970   -5.3673    8.0036 C   0  0  0  0  0  0  0  0  0  0  0  0
    1.7139  -11.3067    6.1761 O   0  0  0  0  0  0  0  0  0  0  0  0
    0.6142  -11.5101    5.4079 C   0  0  0  0  0  0  0  0  0  0  0  0
    0.0915  -12.7377    4.9736 C   0  0  0  0  0  0  0  0  0  0  0  0
   -1.4561  -14.8797    5.3943 H   0  0  0  0  0  0  0  0  0  0  0  0
   -1.0187  -14.4417    3.0770 H   0  0  0  0  0  0  0  0  0  0  0  0
   -2.6228  -13.7097    3.1009 H   0  0  0  0  0  0  0  0  0  0  0  0
   -2.7607  -11.4008    3.6517 H   0  0  0  0  0  0  0  0  0  0  0  0
   -1.6927   -9.2852    4.4071 H   0  0  0  0  0  0  0  0  0  0  0  0
    3.1395  -10.2943    7.8043 H   0  0  0  0  0  0  0  0  0  0  0  0
    5.7132   -9.0996    8.1766 H   0  0  0  0  0  0  0  0  0  0  0  0
    5.2538   -8.7182    6.5587 H   0  0  0  0  0  0  0  0  0  0  0  0
    5.0826   -7.0022    5.0901 H   0  0  0  0  0  0  0  0  0  0  0  0
    5.6881   -4.8861    4.1365 H   0  0  0  0  0  0  0  0  0  0  0  0
    6.5055   -3.0314    5.5372 H   0  0  0  0  0  0  0  0  0  0  0  0
    6.9681   -2.1589    8.1869 H   0  0  0  0  0  0  0  0  0  0  0  0
    6.5970   -3.3734   10.5295 H   0  0  0  0  0  0  0  0  0  0  0  0
    6.2387   -5.8535   10.0358 H   0  0  0  0  0  0  0  0  0  0  0  0
    0.6242  -13.6619    5.1619 H   0  0  0  0  0  0  0  0  0  0  0  0
  1  2  1  0
  2  3  1  0
  3  4  2  0
  4  5  1  0
  5  6  2  0
  6  7  1  0
  7  8  2  0
  8  9  1  0
  9 10  1  0
 10 11  1  0
 11 12  2  0
 12 13  1  0
 13 14  2  0
 14 15  1  0
 15 16  1  0
 16 17  2  0
 17 18  1  0
 18 19  1  0
  8 20  1  0
 20 21  1  0
 21 22  2  0
 22  3  1  0
 21  6  1  0
 19 11  1  0
 19 15  2  0
  1 23  1  0
  2 24  1  0
  2 25  1  0
  4 26  1  0
  5 27  1  0
  9 28  1  0
 10 29  1  0
 10 30  1  0
 12 31  1  0
 13 32  1  0
 14 33  1  0
 16 34  1  0
 17 35  1  0
 18 36  1  0
 22 37  1  0
M  END
>  <Energy>  (992) 
290.50967972383688

>  <compound_id>  (992) 
76779

>  <target_id>  (992) 
1

>  <reference_id>  (992) 
97

>  <inspiration_ids>  (992) 
[2, 97]

>  <energy_score>  (992) 
273.7412296074192

>  <distance_score>  (992) 
13.45252280855473

>  <path>  (992) 
/opt/xchem-fragalysis-2/maxwin/BulkDock/SCRATCH/511022/C76779-P97/C76779-P97.minimised.mol

>  <scratch_subdir>  (992) 
/opt/xchem-fragalysis-2/maxwin/BulkDock/SCRATCH/511022/C76779-P97

>  <fragmenstein_runtime>  (992) 
10.683209419250488

>  <fragmenstein_outcome>  (992) 
too moved

>  <fragmenstein_mode>  (992) 
expansion

>  <fragmenstein_error>  (992) 


$$$$
C76780-P2
     RDKit          3D

 40 43  0  0  0  0  0  0  0  0999 V2000
   -0.6523  -20.4917    9.8167 C   0  0  0  0  0  0  0  0  0  0  0  0
    0.5382  -19.7339    9.6111 O   0  0  0  0  0  0  0  0  0  0  0  0
    1.1835  -19.2703   10.7278 C   0  0  0  0  0  0  0  0  0  0  0  0
    0.7609  -19.4533   12.0494 C   0  0  0  0  0  0  0  0  0  0  0  0
    1.5111  -18.9392   13.1229 C   0  0  0  0  0  0  0  0  0  0  0  0
    2.6646  -18.2172   12.7990 C   0  0  0  0  0  0  0  0  0  0  0  0
    3.5167  -17.5463   13.6459 O   0  0  0  0  0  0  0  0  0  0  0  0
    4.3476  -16.7255   12.8211 C   0  0  0  0  0  0  0  0  0  0  0  0
    5.3264  -15.5129   13.5595 N   0  0  0  0  0  0  0  0  0  0  0  0
    5.6280  -16.5707   15.0088 C   0  0  0  0  0  0  0  0  0  0  0  0
    6.1271  -13.6389   13.5386 C   0  0  0  0  0  0  0  0  0  0  0  0
    5.5078  -11.7695   13.8194 C   0  0  0  0  0  0  0  0  0  0  0  0
    4.3469  -11.2197   14.4816 C   0  0  0  0  0  0  0  0  0  0  0  0
    4.1275  -10.5348   15.7954 C   0  0  0  0  0  0  0  0  0  0  0  0
    4.6123   -9.3102   15.9776 C   0  0  0  0  0  0  0  0  0  0  0  0
    5.5446   -9.1713   15.0008 C   0  0  0  0  0  0  0  0  0  0  0  0
    6.1530   -8.0128   14.6290 C   0  0  0  0  0  0  0  0  0  0  0  0
    7.3725   -8.4279   14.1751 C   0  0  0  0  0  0  0  0  0  0  0  0
    7.4158   -9.7586   14.3782 N   0  0  0  0  0  0  0  0  0  0  0  0
    6.1089  -10.2870   14.2368 C   0  0  0  0  0  0  0  0  0  0  0  0
    4.2627  -17.1805   11.5595 N   0  0  0  0  0  0  0  0  0  0  0  0
    3.1200  -18.0042   11.5155 C   0  0  0  0  0  0  0  0  0  0  0  0
    2.3721  -18.5544   10.4533 C   0  0  0  0  0  0  0  0  0  0  0  0
   -1.0195  -20.8061    8.8349 H   0  0  0  0  0  0  0  0  0  0  0  0
   -1.4324  -19.8852   10.2831 H   0  0  0  0  0  0  0  0  0  0  0  0
   -0.4488  -21.3952   10.4008 H   0  0  0  0  0  0  0  0  0  0  0  0
   -0.1575  -19.9856   12.2852 H   0  0  0  0  0  0  0  0  0  0  0  0
    1.1882  -19.0509   14.1509 H   0  0  0  0  0  0  0  0  0  0  0  0
    4.7025  -16.7493   15.5705 H   0  0  0  0  0  0  0  0  0  0  0  0
    5.9850  -17.5263   14.6006 H   0  0  0  0  0  0  0  0  0  0  0  0
    6.3699  -16.1866   15.7250 H   0  0  0  0  0  0  0  0  0  0  0  0
    6.9415  -13.6861   14.2468 H   0  0  0  0  0  0  0  0  0  0  0  0
    6.5021  -13.6331   12.5123 H   0  0  0  0  0  0  0  0  0  0  0  0
    3.9382  -10.4666   13.7527 H   0  0  0  0  0  0  0  0  0  0  0  0
    3.5528  -11.0401   16.5757 H   0  0  0  0  0  0  0  0  0  0  0  0
    4.3356   -8.6073   16.7435 H   0  0  0  0  0  0  0  0  0  0  0  0
    5.8130   -7.0486   14.9673 H   0  0  0  0  0  0  0  0  0  0  0  0
    8.2754   -7.8822   14.0441 H   0  0  0  0  0  0  0  0  0  0  0  0
    8.2316  -10.3509   14.4387 H   0  0  0  0  0  0  0  0  0  0  0  0
    2.6943  -18.3976    9.4295 H   0  0  0  0  0  0  0  0  0  0  0  0
  1  2  1  0
  2  3  1  0
  3  4  2  0
  4  5  1  0
  5  6  2  0
  6  7  1  0
  7  8  1  0
  8  9  1  0
  9 10  1  0
  9 11  1  0
 11 12  1  0
 12 13  2  0
 13 14  1  0
 14 15  2  0
 15 16  1  0
 16 17  1  0
 17 18  2  0
 18 19  1  0
 19 20  1  0
  8 21  2  0
 21 22  1  0
 22 23  2  0
 23  3  1  0
 22  6  1  0
 20 12  1  0
 20 16  2  0
  1 24  1  0
  1 25  1  0
  1 26  1  0
  4 27  1  0
  5 28  1  0
 10 29  1  0
 10 30  1  0
 10 31  1  0
 11 32  1  0
 11 33  1  0
 13 34  1  0
 14 35  1  0
 15 36  1  0
 17 37  1  0
 18 38  1  0
 19 39  1  0
 23 40  1  0
M  END
>  <Energy>  (993) 
479.6045664799467

>  <compound_id>  (993) 
76780

>  <target_id>  (993) 
1

>  <reference_id>  (993) 
2

>  <inspiration_ids>  (993) 
[2, 97]

>  <energy_score>  (993) 
458.3629069101214

>  <distance_score>  (993) 
12.404667465916345

>  <path>  (993) 
/opt/xchem-fragalysis-2/maxwin/BulkDock/SCRATCH/511022/C76780-P2/C76780-P2.minimised.mol

>  <scratch_subdir>  (993) 
/opt/xchem-fragalysis-2/maxwin/BulkDock/SCRATCH/511022/C76780-P2

>  <fragmenstein_runtime>  (993) 
9.757540464401245

>  <fragmenstein_outcome>  (993) 
too moved

>  <fragmenstein_mode>  (993) 
expansion

>  <fragmenstein_error>  (993) 


$$$$
C76780-P97
     RDKit          3D

 40 43  0  0  0  0  0  0  0  0999 V2000
   -2.3153  -18.7985   17.7861 C   0  0  0  0  0  0  0  0  0  0  0  0
   -3.3681  -18.0022   17.2284 O   0  0  0  0  0  0  0  0  0  0  0  0
   -2.9671  -16.6982   17.0967 C   0  0  0  0  0  0  0  0  0  0  0  0
   -3.7046  -15.7634   17.8262 C   0  0  0  0  0  0  0  0  0  0  0  0
   -3.2282  -14.4578   18.0118 C   0  0  0  0  0  0  0  0  0  0  0  0
   -1.9636  -14.1967   17.4914 C   0  0  0  0  0  0  0  0  0  0  0  0
   -1.1281  -13.1331   17.7851 O   0  0  0  0  0  0  0  0  0  0  0  0
    0.0827  -13.4845   17.2233 C   0  0  0  0  0  0  0  0  0  0  0  0
    1.2856  -12.9970   17.7437 N   0  0  0  0  0  0  0  0  0  0  0  0
    1.9310  -14.0912   18.5021 C   0  0  0  0  0  0  0  0  0  0  0  0
    1.4431  -11.6456   18.4712 C   0  0  0  0  0  0  0  0  0  0  0  0
    2.9172  -10.9323   18.5601 C   0  0  0  0  0  0  0  0  0  0  0  0
    3.9511  -11.6061   19.2703 C   0  0  0  0  0  0  0  0  0  0  0  0
    5.2411  -11.0966   19.5073 C   0  0  0  0  0  0  0  0  0  0  0  0
    5.6066   -9.8328   19.0697 C   0  0  0  0  0  0  0  0  0  0  0  0
    4.6394   -9.0541   18.4215 C   0  0  0  0  0  0  0  0  0  0  0  0
    4.6996   -7.7164   17.9264 C   0  0  0  0  0  0  0  0  0  0  0  0
    3.4485   -7.4048   17.4724 C   0  0  0  0  0  0  0  0  0  0  0  0
    2.6377   -8.4890   17.7081 N   0  0  0  0  0  0  0  0  0  0  0  0
    3.3367   -9.5786   18.2138 C   0  0  0  0  0  0  0  0  0  0  0  0
   -0.0242  -14.5522   16.4428 N   0  0  0  0  0  0  0  0  0  0  0  0
   -1.2674  -15.0757   16.6845 C   0  0  0  0  0  0  0  0  0  0  0  0
   -1.8079  -16.3389   16.3936 C   0  0  0  0  0  0  0  0  0  0  0  0
   -1.6099  -19.1050   17.0071 H   0  0  0  0  0  0  0  0  0  0  0  0
   -1.7915  -18.2805   18.5986 H   0  0  0  0  0  0  0  0  0  0  0  0
   -2.7674  -19.6995   18.2114 H   0  0  0  0  0  0  0  0  0  0  0  0
   -4.6217  -16.0726   18.3227 H   0  0  0  0  0  0  0  0  0  0  0  0
   -3.7414  -13.7453   18.6453 H   0  0  0  0  0  0  0  0  0  0  0  0
    1.5734  -14.1085   19.5384 H   0  0  0  0  0  0  0  0  0  0  0  0
    1.7436  -15.0845   18.0756 H   0  0  0  0  0  0  0  0  0  0  0  0
    3.0140  -13.9813   18.5072 H   0  0  0  0  0  0  0  0  0  0  0  0
    0.7365  -10.9243   18.0629 H   0  0  0  0  0  0  0  0  0  0  0  0
    1.1302  -11.7857   19.5153 H   0  0  0  0  0  0  0  0  0  0  0  0
    3.7388  -12.5678   19.7302 H   0  0  0  0  0  0  0  0  0  0  0  0
    5.9559  -11.6973   20.0667 H   0  0  0  0  0  0  0  0  0  0  0  0
    6.5964   -9.4422   19.2830 H   0  0  0  0  0  0  0  0  0  0  0  0
    5.5509   -7.0495   17.9470 H   0  0  0  0  0  0  0  0  0  0  0  0
    3.0458   -6.4962   17.0458 H   0  0  0  0  0  0  0  0  0  0  0  0
    1.6447   -8.4876   17.5367 H   0  0  0  0  0  0  0  0  0  0  0  0
   -1.2453  -17.0557   15.8058 H   0  0  0  0  0  0  0  0  0  0  0  0
  1  2  1  0
  2  3  1  0
  3  4  2  0
  4  5  1  0
  5  6  2  0
  6  7  1  0
  7  8  1  0
  8  9  1  0
  9 10  1  0
  9 11  1  0
 11 12  1  0
 12 13  2  0
 13 14  1  0
 14 15  2  0
 15 16  1  0
 16 17  1  0
 17 18  2  0
 18 19  1  0
 19 20  1  0
  8 21  2  0
 21 22  1  0
 22 23  2  0
 23  3  1  0
 22  6  1  0
 20 12  1  0
 20 16  2  0
  1 24  1  0
  1 25  1  0
  1 26  1  0
  4 27  1  0
  5 28  1  0
 10 29  1  0
 10 30  1  0
 10 31  1  0
 11 32  1  0
 11 33  1  0
 13 34  1  0
 14 35  1  0
 15 36  1  0
 17 37  1  0
 18 38  1  0
 19 39  1  0
 23 40  1  0
M  END
>  <Energy>  (994) 
38.611196973071017

>  <compound_id>  (994) 
76780

>  <target_id>  (994) 
1

>  <reference_id>  (994) 
97

>  <inspiration_ids>  (994) 
[2, 97]

>  <energy_score>  (994) 
17.36953740325322

>  <distance_score>  (994) 
13.227074982024302

>  <path>  (994) 
/opt/xchem-fragalysis-2/maxwin/BulkDock/SCRATCH/511022/C76780-P97/C76780-P97.minimised.mol

>  <scratch_subdir>  (994) 
/opt/xchem-fragalysis-2/maxwin/BulkDock/SCRATCH/511022/C76780-P97

>  <fragmenstein_runtime>  (994) 
15.096151113510132

>  <fragmenstein_outcome>  (994) 
too moved

>  <fragmenstein_mode>  (994) 
expansion

>  <fragmenstein_error>  (994) 


$$$$
C76781-P2
     RDKit          3D

 36 39  0  0  0  0  0  0  0  0999 V2000
   -7.8867  -20.1346   11.2802 C   0  0  0  0  0  0  0  0  0  0  0  0
   -6.8043  -19.3324   11.9881 C   0  0  0  0  0  0  0  0  0  0  0  0
   -5.6767  -19.8813   12.2244 N   0  0  0  0  0  0  0  0  0  0  0  0
   -4.8485  -18.9438   11.9616 C   0  0  0  0  0  0  0  0  0  0  0  0
   -3.2758  -18.7537   10.7439 C   0  0  0  0  0  0  0  0  0  0  0  0
   -2.8983  -17.0416    9.8678 C   0  0  0  0  0  0  0  0  0  0  0  0
   -3.2122  -15.3791   10.9190 C   0  0  0  0  0  0  0  0  0  0  0  0
   -1.4752  -14.4508   11.2740 N   0  0  0  0  0  0  0  0  0  0  0  0
   -0.0209  -13.0086   11.8356 C   0  0  0  0  0  0  0  0  0  0  0  0
    1.2837  -11.2990   11.9342 C   0  0  0  0  0  0  0  0  0  0  0  0
    2.1532  -11.1382   13.4359 C   0  0  0  0  0  0  0  0  0  0  0  0
    3.8183  -10.9365   14.3477 C   0  0  0  0  0  0  0  0  0  0  0  0
    5.0123  -10.9070   13.7998 C   0  0  0  0  0  0  0  0  0  0  0  0
    4.1080  -10.0294   13.1584 C   0  0  0  0  0  0  0  0  0  0  0  0
    4.1673   -8.0067   13.1783 C   0  0  0  0  0  0  0  0  0  0  0  0
    3.4991   -7.6659   11.8787 C   0  0  0  0  0  0  0  0  0  0  0  0
    3.9506   -9.0542   12.7876 N   0  0  0  0  0  0  0  0  0  0  0  0
    2.9992  -10.4589   11.8373 C   0  0  0  0  0  0  0  0  0  0  0  0
   -5.1512  -15.3996   11.6445 C   0  0  0  0  0  0  0  0  0  0  0  0
   -5.8713  -17.2437   12.1226 C   0  0  0  0  0  0  0  0  0  0  0  0
   -6.9245  -18.0024   12.6668 O   0  0  0  0  0  0  0  0  0  0  0  0
   -8.9102  -19.8291   11.5054 H   0  0  0  0  0  0  0  0  0  0  0  0
   -7.7899  -21.1960   11.5358 H   0  0  0  0  0  0  0  0  0  0  0  0
   -7.7393  -20.0838   10.1988 H   0  0  0  0  0  0  0  0  0  0  0  0
   -2.9574  -19.7074   10.3136 H   0  0  0  0  0  0  0  0  0  0  0  0
   -2.0012  -17.0791    9.2260 H   0  0  0  0  0  0  0  0  0  0  0  0
   -0.9823  -14.9403   10.5229 H   0  0  0  0  0  0  0  0  0  0  0  0
    0.7566  -13.6884   11.5253 H   0  0  0  0  0  0  0  0  0  0  0  0
   -0.0850  -13.1570   12.9210 H   0  0  0  0  0  0  0  0  0  0  0  0
    2.5229  -10.3625   14.0890 H   0  0  0  0  0  0  0  0  0  0  0  0
    3.8274  -11.3369   15.3883 H   0  0  0  0  0  0  0  0  0  0  0  0
    5.4578  -11.8483   13.5179 H   0  0  0  0  0  0  0  0  0  0  0  0
    4.9045   -7.3402   13.6658 H   0  0  0  0  0  0  0  0  0  0  0  0
    3.9325   -6.7010   11.5926 H   0  0  0  0  0  0  0  0  0  0  0  0
    5.0240   -9.0490   13.7689 H   0  0  0  0  0  0  0  0  0  0  0  0
   -5.3569  -14.6715   12.4532 H   0  0  0  0  0  0  0  0  0  0  0  0
  1  2  1  0
  2  3  2  0
  3  4  1  0
  4  5  2  0
  5  6  1  0
  6  7  2  0
  7  8  1  0
  8  9  1  0
  9 10  1  0
 10 11  2  0
 11 12  1  0
 12 13  2  0
 13 14  1  0
 14 15  1  0
 15 16  2  0
 16 17  1  0
 17 18  1  0
  7 19  1  0
 19 20  2  0
 20 21  1  0
 21  2  1  0
 20  4  1  0
 18 10  1  0
 18 14  2  0
  1 22  1  0
  1 23  1  0
  1 24  1  0
  5 25  1  0
  6 26  1  0
  8 27  1  0
  9 28  1  0
  9 29  1  0
 11 30  1  0
 12 31  1  0
 13 32  1  0
 15 33  1  0
 16 34  1  0
 17 35  1  0
 19 36  1  0
M  END
>  <Energy>  (995) 
2481.2194483668363

>  <compound_id>  (995) 
76781

>  <target_id>  (995) 
1

>  <reference_id>  (995) 
2

>  <inspiration_ids>  (995) 
[2, 97]

>  <energy_score>  (995) 
2421.262680803784

>  <distance_score>  (995) 
10.502100744461783

>  <path>  (995) 
/opt/xchem-fragalysis-2/maxwin/BulkDock/SCRATCH/511022/C76781-P2/C76781-P2.minimised.mol

>  <scratch_subdir>  (995) 
/opt/xchem-fragalysis-2/maxwin/BulkDock/SCRATCH/511022/C76781-P2

>  <fragmenstein_runtime>  (995) 
10.353391408920288

>  <fragmenstein_outcome>  (995) 
too moved

>  <fragmenstein_mode>  (995) 
expansion

>  <fragmenstein_error>  (995) 


$$$$
C76781-P97
     RDKit          3D

 36 39  0  0  0  0  0  0  0  0999 V2000
   -0.7256  -21.0200    7.2101 C   0  0  0  0  0  0  0  0  0  0  0  0
    0.2987  -20.0954    7.7656 C   0  0  0  0  0  0  0  0  0  0  0  0
    0.1395  -18.8537    8.1846 N   0  0  0  0  0  0  0  0  0  0  0  0
    1.4205  -18.4501    8.4953 C   0  0  0  0  0  0  0  0  0  0  0  0
    1.9239  -17.2313    8.9569 C   0  0  0  0  0  0  0  0  0  0  0  0
    3.3295  -17.0529    9.0997 C   0  0  0  0  0  0  0  0  0  0  0  0
    4.2800  -18.0600    8.8466 C   0  0  0  0  0  0  0  0  0  0  0  0
    5.7213  -17.8607    9.0917 N   0  0  0  0  0  0  0  0  0  0  0  0
    6.2906  -16.4730    8.8286 C   0  0  0  0  0  0  0  0  0  0  0  0
    7.8717  -16.1077    8.8865 C   0  0  0  0  0  0  0  0  0  0  0  0
    8.7069  -16.7536    7.9576 C   0  0  0  0  0  0  0  0  0  0  0  0
   10.0416  -16.3794    7.7159 C   0  0  0  0  0  0  0  0  0  0  0  0
   10.6511  -15.3144    8.3745 C   0  0  0  0  0  0  0  0  0  0  0  0
    9.9109  -14.6225    9.3307 C   0  0  0  0  0  0  0  0  0  0  0  0
   10.2683  -13.5276   10.1738 C   0  0  0  0  0  0  0  0  0  0  0  0
    9.1974  -13.3073   10.9863 C   0  0  0  0  0  0  0  0  0  0  0  0
    8.1971  -14.1576   10.5815 N   0  0  0  0  0  0  0  0  0  0  0  0
    8.5766  -15.0198    9.5745 C   0  0  0  0  0  0  0  0  0  0  0  0
    3.7415  -19.3336    8.4745 C   0  0  0  0  0  0  0  0  0  0  0  0
    2.3333  -19.4670    8.2711 C   0  0  0  0  0  0  0  0  0  0  0  0
    1.6040  -20.5484    7.8119 O   0  0  0  0  0  0  0  0  0  0  0  0
   -0.5999  -22.0256    7.6207 H   0  0  0  0  0  0  0  0  0  0  0  0
   -0.6281  -21.0744    6.1219 H   0  0  0  0  0  0  0  0  0  0  0  0
   -1.7313  -20.6659    7.4478 H   0  0  0  0  0  0  0  0  0  0  0  0
    1.2502  -16.4208    9.1877 H   0  0  0  0  0  0  0  0  0  0  0  0
    3.6648  -16.0695    9.4094 H   0  0  0  0  0  0  0  0  0  0  0  0
    6.2368  -18.5602    8.5612 H   0  0  0  0  0  0  0  0  0  0  0  0
    5.8014  -15.7804    9.5169 H   0  0  0  0  0  0  0  0  0  0  0  0
    6.0150  -16.2926    7.7861 H   0  0  0  0  0  0  0  0  0  0  0  0
    8.2937  -17.5615    7.3530 H   0  0  0  0  0  0  0  0  0  0  0  0
   10.6119  -16.9296    6.9688 H   0  0  0  0  0  0  0  0  0  0  0  0
   11.6800  -15.0464    8.1563 H   0  0  0  0  0  0  0  0  0  0  0  0
   11.2225  -13.0193   10.2159 H   0  0  0  0  0  0  0  0  0  0  0  0
    9.0535  -12.6314   11.8197 H   0  0  0  0  0  0  0  0  0  0  0  0
    7.3070  -14.2345   11.0500 H   0  0  0  0  0  0  0  0  0  0  0  0
    4.3888  -20.1853    8.2997 H   0  0  0  0  0  0  0  0  0  0  0  0
  1  2  1  0
  2  3  2  0
  3  4  1  0
  4  5  2  0
  5  6  1  0
  6  7  2  0
  7  8  1  0
  8  9  1  0
  9 10  1  0
 10 11  2  0
 11 12  1  0
 12 13  2  0
 13 14  1  0
 14 15  1  0
 15 16  2  0
 16 17  1  0
 17 18  1  0
  7 19  1  0
 19 20  2  0
 20 21  1  0
 21  2  1  0
 20  4  1  0
 18 10  1  0
 18 14  2  0
  1 22  1  0
  1 23  1  0
  1 24  1  0
  5 25  1  0
  6 26  1  0
  8 27  1  0
  9 28  1  0
  9 29  1  0
 11 30  1  0
 12 31  1  0
 13 32  1  0
 15 33  1  0
 16 34  1  0
 17 35  1  0
 19 36  1  0
M  END
>  <Energy>  (996) 
56.319379624507604

>  <compound_id>  (996) 
76781

>  <target_id>  (996) 
1

>  <reference_id>  (996) 
97

>  <inspiration_ids>  (996) 
[2, 97]

>  <energy_score>  (996) 
-3.637387938562931

>  <distance_score>  (996) 
13.49305872090852

>  <path>  (996) 
/opt/xchem-fragalysis-2/maxwin/BulkDock/SCRATCH/511022/C76781-P97/C76781-P97.minimised.mol

>  <scratch_subdir>  (996) 
/opt/xchem-fragalysis-2/maxwin/BulkDock/SCRATCH/511022/C76781-P97

>  <fragmenstein_runtime>  (996) 
10.092403888702393

>  <fragmenstein_outcome>  (996) 
too moved

>  <fragmenstein_mode>  (996) 
expansion

>  <fragmenstein_error>  (996) 


$$$$
C14451-P2
     RDKit          3D

 36 39  0  0  0  0  0  0  0  0999 V2000
   -2.1198  -21.0353   11.0922 C   0  0  0  0  0  0  0  0  0  0  0  0
   -0.7299  -20.7277   11.4911 C   0  0  0  0  0  0  0  0  0  0  0  0
    0.3089  -20.5057   10.7096 N   0  0  0  0  0  0  0  0  0  0  0  0
    1.3259  -20.2327   11.5940 C   0  0  0  0  0  0  0  0  0  0  0  0
    2.6653  -19.8847   11.3825 C   0  0  0  0  0  0  0  0  0  0  0  0
    3.4986  -19.5674   12.4927 C   0  0  0  0  0  0  0  0  0  0  0  0
    3.0462  -19.6043   13.8213 C   0  0  0  0  0  0  0  0  0  0  0  0
    3.7589  -18.9645   14.9208 N   0  0  0  0  0  0  0  0  0  0  0  0
    5.2256  -18.5381   14.8554 C   0  0  0  0  0  0  0  0  0  0  0  0
    5.7851  -17.6191   16.0271 C   0  0  0  0  0  0  0  0  0  0  0  0
    4.9149  -17.1464   17.0381 C   0  0  0  0  0  0  0  0  0  0  0  0
    5.3349  -16.3295   18.1001 C   0  0  0  0  0  0  0  0  0  0  0  0
    6.6512  -15.8952   18.2107 C   0  0  0  0  0  0  0  0  0  0  0  0
    7.5246  -16.2683   17.1901 C   0  0  0  0  0  0  0  0  0  0  0  0
    8.8210  -15.8435   16.9670 N   0  0  0  0  0  0  0  0  0  0  0  0
    9.3569  -16.5154   15.9096 C   0  0  0  0  0  0  0  0  0  0  0  0
    8.3824  -17.3702   15.4344 C   0  0  0  0  0  0  0  0  0  0  0  0
    7.1583  -17.1534   16.1593 C   0  0  0  0  0  0  0  0  0  0  0  0
    1.6907  -20.0322   14.0281 C   0  0  0  0  0  0  0  0  0  0  0  0
    0.8781  -20.3096   12.9010 C   0  0  0  0  0  0  0  0  0  0  0  0
   -0.4605  -20.6318   12.8421 O   0  0  0  0  0  0  0  0  0  0  0  0
   -2.1832  -21.2081   10.0142 H   0  0  0  0  0  0  0  0  0  0  0  0
   -2.7587  -20.1887   11.3525 H   0  0  0  0  0  0  0  0  0  0  0  0
   -2.4575  -21.9340   11.6144 H   0  0  0  0  0  0  0  0  0  0  0  0
    3.0501  -19.8103   10.3711 H   0  0  0  0  0  0  0  0  0  0  0  0
    4.5075  -19.2314   12.2721 H   0  0  0  0  0  0  0  0  0  0  0  0
    3.2301  -18.0852   14.9888 H   0  0  0  0  0  0  0  0  0  0  0  0
    5.8410  -19.4434   14.8261 H   0  0  0  0  0  0  0  0  0  0  0  0
    5.3794  -17.9663   13.9361 H   0  0  0  0  0  0  0  0  0  0  0  0
    3.8692  -17.4497   17.0245 H   0  0  0  0  0  0  0  0  0  0  0  0
    4.6074  -16.0261   18.8497 H   0  0  0  0  0  0  0  0  0  0  0  0
    6.9601  -15.2462   19.0224 H   0  0  0  0  0  0  0  0  0  0  0  0
    9.3044  -15.1535   17.5240 H   0  0  0  0  0  0  0  0  0  0  0  0
   10.3726  -16.3367   15.5849 H   0  0  0  0  0  0  0  0  0  0  0  0
    8.5007  -18.0292   14.5852 H   0  0  0  0  0  0  0  0  0  0  0  0
    1.2658  -20.0514   15.0244 H   0  0  0  0  0  0  0  0  0  0  0  0
  1  2  1  0
  2  3  2  0
  3  4  1  0
  4  5  2  0
  5  6  1  0
  6  7  2  0
  7  8  1  0
  8  9  1  0
  9 10  1  0
 10 11  2  0
 11 12  1  0
 12 13  2  0
 13 14  1  0
 14 15  1  0
 15 16  1  0
 16 17  2  0
 17 18  1  0
  7 19  1  0
 19 20  2  0
 20 21  1  0
 21  2  1  0
 20  4  1  0
 18 10  1  0
 18 14  2  0
  1 22  1  0
  1 23  1  0
  1 24  1  0
  5 25  1  0
  6 26  1  0
  8 27  1  0
  9 28  1  0
  9 29  1  0
 11 30  1  0
 12 31  1  0
 13 32  1  0
 15 33  1  0
 16 34  1  0
 17 35  1  0
 19 36  1  0
M  END
>  <Energy>  (997) 
48.782557254317673

>  <compound_id>  (997) 
14451

>  <target_id>  (997) 
1

>  <reference_id>  (997) 
2

>  <inspiration_ids>  (997) 
[2, 97]

>  <energy_score>  (997) 
-6.056685168063723

>  <distance_score>  (997) 
14.22134488549797

>  <path>  (997) 
/opt/xchem-fragalysis-2/maxwin/BulkDock/SCRATCH/511022/C14451-P2/C14451-P2.minimised.mol

>  <scratch_subdir>  (997) 
/opt/xchem-fragalysis-2/maxwin/BulkDock/SCRATCH/511022/C14451-P2

>  <fragmenstein_runtime>  (997) 
13.001828908920288

>  <fragmenstein_outcome>  (997) 
too moved

>  <fragmenstein_mode>  (997) 
expansion

>  <fragmenstein_error>  (997) 


$$$$
C14451-P97
     RDKit          3D

 36 39  0  0  0  0  0  0  0  0999 V2000
   -1.3597  -16.9725    9.9690 C   0  0  0  0  0  0  0  0  0  0  0  0
   -0.7525  -15.8633   10.7869 C   0  0  0  0  0  0  0  0  0  0  0  0
    0.1875  -15.9215   11.6938 N   0  0  0  0  0  0  0  0  0  0  0  0
    0.2849  -14.6178   12.1184 C   0  0  0  0  0  0  0  0  0  0  0  0
    0.2473  -13.8570   13.2180 C   0  0  0  0  0  0  0  0  0  0  0  0
    0.6106  -12.4570   13.2813 C   0  0  0  0  0  0  0  0  0  0  0  0
    0.9969  -11.5597   12.2395 C   0  0  0  0  0  0  0  0  0  0  0  0
    2.6482  -10.8787   12.0896 N   0  0  0  0  0  0  0  0  0  0  0  0
    3.8527  -10.0842   13.4974 C   0  0  0  0  0  0  0  0  0  0  0  0
    4.1455   -8.1302   14.0058 C   0  0  0  0  0  0  0  0  0  0  0  0
    5.6137   -7.7928   13.9085 C   0  0  0  0  0  0  0  0  0  0  0  0
    6.3171   -7.1164   15.1002 C   0  0  0  0  0  0  0  0  0  0  0  0
    5.8245   -6.4134   16.4238 C   0  0  0  0  0  0  0  0  0  0  0  0
    4.3944   -6.2467   16.4695 C   0  0  0  0  0  0  0  0  0  0  0  0
    3.6715   -5.4859   17.3460 N   0  0  0  0  0  0  0  0  0  0  0  0
    2.4109   -5.9435   17.3991 C   0  0  0  0  0  0  0  0  0  0  0  0
    2.3311   -6.9612   16.4839 C   0  0  0  0  0  0  0  0  0  0  0  0
    3.5017   -6.9720   15.3904 C   0  0  0  0  0  0  0  0  0  0  0  0
    0.2139  -12.1909   11.3472 C   0  0  0  0  0  0  0  0  0  0  0  0
   -0.2706  -13.7096   11.3226 C   0  0  0  0  0  0  0  0  0  0  0  0
   -1.2387  -14.5635   10.6718 O   0  0  0  0  0  0  0  0  0  0  0  0
   -0.6624  -17.2860    9.1853 H   0  0  0  0  0  0  0  0  0  0  0  0
   -1.5325  -17.8689   10.5659 H   0  0  0  0  0  0  0  0  0  0  0  0
   -2.2944  -16.6551    9.5045 H   0  0  0  0  0  0  0  0  0  0  0  0
   -0.4474  -14.1602   13.9478 H   0  0  0  0  0  0  0  0  0  0  0  0
    1.1241  -12.2929   14.2077 H   0  0  0  0  0  0  0  0  0  0  0  0
    2.4282  -10.0832   11.4853 H   0  0  0  0  0  0  0  0  0  0  0  0
    3.5383  -10.5743   14.4097 H   0  0  0  0  0  0  0  0  0  0  0  0
    4.8225  -10.5981   13.4181 H   0  0  0  0  0  0  0  0  0  0  0  0
    6.3735   -7.9052   13.1567 H   0  0  0  0  0  0  0  0  0  0  0  0
    7.3378   -7.3744   14.8413 H   0  0  0  0  0  0  0  0  0  0  0  0
    6.4579   -6.0348   17.1996 H   0  0  0  0  0  0  0  0  0  0  0  0
    4.0726   -4.8735   18.0388 H   0  0  0  0  0  0  0  0  0  0  0  0
    1.7191   -5.6227   18.1668 H   0  0  0  0  0  0  0  0  0  0  0  0
    1.4638   -7.6155   16.4935 H   0  0  0  0  0  0  0  0  0  0  0  0
   -0.3011  -11.4755   10.7637 H   0  0  0  0  0  0  0  0  0  0  0  0
  1  2  1  0
  2  3  2  0
  3  4  1  0
  4  5  2  0
  5  6  1  0
  6  7  2  0
  7  8  1  0
  8  9  1  0
  9 10  1  0
 10 11  2  0
 11 12  1  0
 12 13  2  0
 13 14  1  0
 14 15  1  0
 15 16  1  0
 16 17  2  0
 17 18  1  0
  7 19  1  0
 19 20  2  0
 20 21  1  0
 21  2  1  0
 20  4  1  0
 18 10  1  0
 18 14  2  0
  1 22  1  0
  1 23  1  0
  1 24  1  0
  5 25  1  0
  6 26  1  0
  8 27  1  0
  9 28  1  0
  9 29  1  0
 11 30  1  0
 12 31  1  0
 13 32  1  0
 15 33  1  0
 16 34  1  0
 17 35  1  0
 19 36  1  0
M  END
>  <Energy>  (998) 
597.26734388615273

>  <compound_id>  (998) 
14451

>  <target_id>  (998) 
1

>  <reference_id>  (998) 
97

>  <inspiration_ids>  (998) 
[2, 97]

>  <energy_score>  (998) 
542.4281014637779

>  <distance_score>  (998) 
11.787239464029858

>  <path>  (998) 
/opt/xchem-fragalysis-2/maxwin/BulkDock/SCRATCH/511022/C14451-P97/C14451-P97.minimised.mol

>  <scratch_subdir>  (998) 
/opt/xchem-fragalysis-2/maxwin/BulkDock/SCRATCH/511022/C14451-P97

>  <fragmenstein_runtime>  (998) 
11.169020891189575

>  <fragmenstein_outcome>  (998) 
too moved

>  <fragmenstein_mode>  (998) 
expansion

>  <fragmenstein_error>  (998) 


$$$$
C14452-P2
     RDKit          3D

 36 39  0  0  0  0  0  0  0  0999 V2000
   -6.8362  -12.4322   12.4844 F   0  0  0  0  0  0  0  0  0  0  0  0
   -5.8802  -12.8088   11.5818 C   0  0  0  0  0  0  0  0  0  0  0  0
   -6.5096  -13.2134   10.4481 F   0  0  0  0  0  0  0  0  0  0  0  0
   -5.3390  -11.6103   11.2413 F   0  0  0  0  0  0  0  0  0  0  0  0
   -4.8699  -13.8762   12.1228 C   0  0  0  0  0  0  0  0  0  0  0  0
   -4.5087  -14.1203   13.3936 N   0  0  0  0  0  0  0  0  0  0  0  0
   -3.1671  -14.1076   13.2226 C   0  0  0  0  0  0  0  0  0  0  0  0
   -1.2831  -13.9112   13.8323 C   0  0  0  0  0  0  0  0  0  0  0  0
    0.1344  -13.2458   13.0638 C   0  0  0  0  0  0  0  0  0  0  0  0
    0.4832  -13.0086   11.7137 C   0  0  0  0  0  0  0  0  0  0  0  0
    1.9225  -11.8869   11.1300 N   0  0  0  0  0  0  0  0  0  0  0  0
    3.8824  -11.2485   11.2506 C   0  0  0  0  0  0  0  0  0  0  0  0
    5.6204  -10.7786   12.5354 C   0  0  0  0  0  0  0  0  0  0  0  0
    4.8350  -10.3486   13.7063 C   0  0  0  0  0  0  0  0  0  0  0  0
    4.7399   -8.8813   13.7993 C   0  0  0  0  0  0  0  0  0  0  0  0
    5.7102   -7.8048   13.4863 C   0  0  0  0  0  0  0  0  0  0  0  0
    6.9244   -8.0205   12.7613 C   0  0  0  0  0  0  0  0  0  0  0  0
    7.7398   -7.3069   11.9692 N   0  0  0  0  0  0  0  0  0  0  0  0
    8.4240   -7.5972   10.8285 C   0  0  0  0  0  0  0  0  0  0  0  0
    8.6869   -8.8174   11.2029 C   0  0  0  0  0  0  0  0  0  0  0  0
    7.2137   -9.4114   12.4122 C   0  0  0  0  0  0  0  0  0  0  0  0
   -0.8503  -14.0362   11.1195 C   0  0  0  0  0  0  0  0  0  0  0  0
   -2.5356  -14.6706   11.6266 C   0  0  0  0  0  0  0  0  0  0  0  0
   -4.0526  -14.4765   11.1159 O   0  0  0  0  0  0  0  0  0  0  0  0
   -1.2702  -14.2200   14.8827 H   0  0  0  0  0  0  0  0  0  0  0  0
    0.8899  -12.9434   13.7604 H   0  0  0  0  0  0  0  0  0  0  0  0
    1.4820  -11.0374   11.5332 H   0  0  0  0  0  0  0  0  0  0  0  0
    3.7930  -10.5845   10.3599 H   0  0  0  0  0  0  0  0  0  0  0  0
    4.0765  -12.3035   10.9268 H   0  0  0  0  0  0  0  0  0  0  0  0
    4.0294  -10.8695   14.1544 H   0  0  0  0  0  0  0  0  0  0  0  0
    3.8354   -8.3637   14.0275 H   0  0  0  0  0  0  0  0  0  0  0  0
    5.0214   -7.2754   12.8277 H   0  0  0  0  0  0  0  0  0  0  0  0
    8.1291   -6.6296   12.5321 H   0  0  0  0  0  0  0  0  0  0  0  0
    8.4846   -7.1495    9.8310 H   0  0  0  0  0  0  0  0  0  0  0  0
    9.1528   -9.4678   10.4338 H   0  0  0  0  0  0  0  0  0  0  0  0
   -0.4396  -14.8725   10.5312 H   0  0  0  0  0  0  0  0  0  0  0  0
  1  2  1  0
  2  3  1  0
  2  4  1  0
  2  5  1  0
  5  6  2  0
  6  7  1  0
  7  8  2  0
  8  9  1  0
  9 10  2  0
 10 11  1  0
 11 12  1  0
 12 13  1  0
 13 14  2  0
 14 15  1  0
 15 16  2  0
 16 17  1  0
 17 18  1  0
 18 19  1  0
 19 20  2  0
 20 21  1  0
 10 22  1  0
 22 23  2  0
 23 24  1  0
 24  5  1  0
 23  7  1  0
 21 13  1  0
 21 17  2  0
  8 25  1  0
  9 26  1  0
 11 27  1  0
 12 28  1  0
 12 29  1  0
 14 30  1  0
 15 31  1  0
 16 32  1  0
 18 33  1  0
 19 34  1  0
 20 35  1  0
 22 36  1  0
M  END
>  <Energy>  (999) 
1400.0491831447252

>  <compound_id>  (999) 
14452

>  <target_id>  (999) 
1

>  <reference_id>  (999) 
2

>  <inspiration_ids>  (999) 
[2, 97]

>  <energy_score>  (999) 
1277.4589660305542

>  <distance_score>  (999) 
10.980098040849688

>  <path>  (999) 
/opt/xchem-fragalysis-2/maxwin/BulkDock/SCRATCH/511022/C14452-P2/C14452-P2.minimised.mol

>  <scratch_subdir>  (999) 
/opt/xchem-fragalysis-2/maxwin/BulkDock/SCRATCH/511022/C14452-P2

>  <fragmenstein_runtime>  (999) 
15.475202798843384

>  <fragmenstein_outcome>  (999) 
too moved

>  <fragmenstein_mode>  (999) 
expansion

>  <fragmenstein_error>  (999) 


$$$$
C14452-P97
     RDKit          3D

 36 39  0  0  0  0  0  0  0  0999 V2000
   -2.6456  -17.5776   18.1565 F   0  0  0  0  0  0  0  0  0  0  0  0
   -3.7207  -17.6184   17.3125 C   0  0  0  0  0  0  0  0  0  0  0  0
   -3.7072  -18.8601   16.7718 F   0  0  0  0  0  0  0  0  0  0  0  0
   -4.7833  -17.5475   18.1613 F   0  0  0  0  0  0  0  0  0  0  0  0
   -3.6840  -16.5044   16.2926 C   0  0  0  0  0  0  0  0  0  0  0  0
   -4.2851  -15.3517   16.2245 N   0  0  0  0  0  0  0  0  0  0  0  0
   -3.3921  -14.7648   15.4175 C   0  0  0  0  0  0  0  0  0  0  0  0
   -3.2843  -14.4149   14.1362 C   0  0  0  0  0  0  0  0  0  0  0  0
   -1.3888  -13.7208   13.8359 C   0  0  0  0  0  0  0  0  0  0  0  0
   -0.0389  -13.0249   13.2867 C   0  0  0  0  0  0  0  0  0  0  0  0
    1.3591  -11.9610   14.0249 N   0  0  0  0  0  0  0  0  0  0  0  0
    3.0305  -10.6052   14.1111 C   0  0  0  0  0  0  0  0  0  0  0  0
    3.5253   -8.5253   14.3604 C   0  0  0  0  0  0  0  0  0  0  0  0
    4.8221   -8.4076   13.8265 C   0  0  0  0  0  0  0  0  0  0  0  0
    5.9947   -7.5774   14.3295 C   0  0  0  0  0  0  0  0  0  0  0  0
    5.9626   -6.5868   15.8210 C   0  0  0  0  0  0  0  0  0  0  0  0
    4.4461   -6.3668   16.4019 C   0  0  0  0  0  0  0  0  0  0  0  0
    3.9355   -5.6635   17.4476 N   0  0  0  0  0  0  0  0  0  0  0  0
    2.6327   -6.0024   17.6458 C   0  0  0  0  0  0  0  0  0  0  0  0
    2.2467   -6.9710   16.7428 C   0  0  0  0  0  0  0  0  0  0  0  0
    3.2883   -7.2135   15.7098 C   0  0  0  0  0  0  0  0  0  0  0  0
   -0.6405  -14.2029   14.0607 C   0  0  0  0  0  0  0  0  0  0  0  0
   -2.0268  -15.0193   15.2748 C   0  0  0  0  0  0  0  0  0  0  0  0
   -2.7401  -16.5705   15.2366 O   0  0  0  0  0  0  0  0  0  0  0  0
   -4.2391  -14.3461   13.5155 H   0  0  0  0  0  0  0  0  0  0  0  0
   -2.8094  -13.9324   13.3680 H   0  0  0  0  0  0  0  0  0  0  0  0
    1.4383  -12.5989   14.8445 H   0  0  0  0  0  0  0  0  0  0  0  0
    3.7686  -11.0397   14.8431 H   0  0  0  0  0  0  0  0  0  0  0  0
    3.5370  -10.6637   13.1495 H   0  0  0  0  0  0  0  0  0  0  0  0
    5.0604   -9.5114   13.9069 H   0  0  0  0  0  0  0  0  0  0  0  0
    6.7974   -7.8480   13.6991 H   0  0  0  0  0  0  0  0  0  0  0  0
    6.7398   -5.9627   16.2257 H   0  0  0  0  0  0  0  0  0  0  0  0
    4.4709   -5.0941   18.0821 H   0  0  0  0  0  0  0  0  0  0  0  0
    2.0863   -5.5822   18.4805 H   0  0  0  0  0  0  0  0  0  0  0  0
    1.2822   -7.4656   16.7790 H   0  0  0  0  0  0  0  0  0  0  0  0
   -0.0336  -15.0258   13.4052 H   0  0  0  0  0  0  0  0  0  0  0  0
  1  2  1  0
  2  3  1  0
  2  4  1  0
  2  5  1  0
  5  6  2  0
  6  7  1  0
  7  8  2  0
  8  9  1  0
  9 10  2  0
 10 11  1  0
 11 12  1  0
 12 13  1  0
 13 14  2  0
 14 15  1  0
 15 16  2  0
 16 17  1  0
 17 18  1  0
 18 19  1  0
 19 20  2  0
 20 21  1  0
 10 22  1  0
 22 23  2  0
 23 24  1  0
 24  5  1  0
 23  7  1  0
 21 13  1  0
 21 17  2  0
  8 25  1  0
  9 26  1  0
 11 27  1  0
 12 28  1  0
 12 29  1  0
 14 30  1  0
 15 31  1  0
 16 32  1  0
 18 33  1  0
 19 34  1  0
 20 35  1  0
 22 36  1  0
M  END
>  <Energy>  (1000) 
1630.9697959786097

>  <compound_id>  (1000) 
14452

>  <target_id>  (1000) 
1

>  <reference_id>  (1000) 
97

>  <inspiration_ids>  (1000) 
[2, 97]

>  <energy_score>  (1000) 
1508.3795788644525

>  <distance_score>  (1000) 
11.80949727863804

>  <path>  (1000) 
/opt/xchem-fragalysis-2/maxwin/BulkDock/SCRATCH/511022/C14452-P97/C14452-P97.minimised.mol

>  <scratch_subdir>  (1000) 
/opt/xchem-fragalysis-2/maxwin/BulkDock/SCRATCH/511022/C14452-P97

>  <fragmenstein_runtime>  (1000) 
14.251473665237427

>  <fragmenstein_outcome>  (1000) 
too moved

>  <fragmenstein_mode>  (1000) 
expansion

>  <fragmenstein_error>  (1000) 


$$$$
C76782-P2
     RDKit          3D

 41 44  0  0  0  0  0  0  0  0999 V2000
   -6.0052  -13.9119    9.1400 C   0  0  0  0  0  0  0  0  0  0  0  0
   -6.0474  -14.0052   10.6792 N   0  0  0  0  0  0  0  0  0  0  0  0
   -6.7847  -12.6966   11.1651 C   0  0  0  0  0  0  0  0  0  0  0  0
   -4.9101  -14.5969   11.6021 C   0  0  0  0  0  0  0  0  0  0  0  0
   -4.5422  -14.3167   12.7973 N   0  0  0  0  0  0  0  0  0  0  0  0
   -3.5699  -13.6713   12.1428 C   0  0  0  0  0  0  0  0  0  0  0  0
   -3.6131  -11.5427   11.8727 C   0  0  0  0  0  0  0  0  0  0  0  0
   -1.5074  -10.9251   11.8300 C   0  0  0  0  0  0  0  0  0  0  0  0
    0.5343  -10.8324   11.3722 C   0  0  0  0  0  0  0  0  0  0  0  0
    2.3828   -9.6632   10.9945 N   0  0  0  0  0  0  0  0  0  0  0  0
    4.0887   -8.0432   10.6392 C   0  0  0  0  0  0  0  0  0  0  0  0
    6.2269   -6.9174   10.8599 C   0  0  0  0  0  0  0  0  0  0  0  0
    8.0880   -5.7916   10.4460 C   0  0  0  0  0  0  0  0  0  0  0  0
   10.0833   -4.7525   10.7273 C   0  0  0  0  0  0  0  0  0  0  0  0
   10.4788   -4.7846   12.7718 C   0  0  0  0  0  0  0  0  0  0  0  0
    8.6680   -5.7504   13.4966 C   0  0  0  0  0  0  0  0  0  0  0  0
    8.5484   -7.0486   14.6404 C   0  0  0  0  0  0  0  0  0  0  0  0
    8.1181   -8.2581   14.1988 C   0  0  0  0  0  0  0  0  0  0  0  0
    7.6077   -8.1374   12.9859 N   0  0  0  0  0  0  0  0  0  0  0  0
    7.5432   -6.9179   12.2978 C   0  0  0  0  0  0  0  0  0  0  0  0
   -0.3280  -12.6829   11.3499 C   0  0  0  0  0  0  0  0  0  0  0  0
   -1.7560  -14.1898   11.4440 C   0  0  0  0  0  0  0  0  0  0  0  0
   -3.2957  -14.9068   10.8161 O   0  0  0  0  0  0  0  0  0  0  0  0
   -6.8814  -14.3551    8.6861 H   0  0  0  0  0  0  0  0  0  0  0  0
   -5.1181  -14.3297    8.6596 H   0  0  0  0  0  0  0  0  0  0  0  0
   -6.0472  -12.8654    8.8119 H   0  0  0  0  0  0  0  0  0  0  0  0
   -6.4537  -11.8037   10.6256 H   0  0  0  0  0  0  0  0  0  0  0  0
   -6.6525  -12.4883   12.2338 H   0  0  0  0  0  0  0  0  0  0  0  0
   -7.8462  -12.7235   10.9257 H   0  0  0  0  0  0  0  0  0  0  0  0
   -4.5934  -11.0642   12.2159 H   0  0  0  0  0  0  0  0  0  0  0  0
   -1.3281  -10.4094   12.8373 H   0  0  0  0  0  0  0  0  0  0  0  0
    1.7761   -8.9533   11.4529 H   0  0  0  0  0  0  0  0  0  0  0  0
    3.5010   -7.1143   10.8232 H   0  0  0  0  0  0  0  0  0  0  0  0
    4.4571   -8.1937    9.6257 H   0  0  0  0  0  0  0  0  0  0  0  0
    8.0118   -5.7475    9.3135 H   0  0  0  0  0  0  0  0  0  0  0  0
   10.8681   -4.9429    9.9443 H   0  0  0  0  0  0  0  0  0  0  0  0
   11.1612   -4.1923   13.3751 H   0  0  0  0  0  0  0  0  0  0  0  0
    7.9509   -6.3891   15.2717 H   0  0  0  0  0  0  0  0  0  0  0  0
    8.3702   -9.2442   14.5844 H   0  0  0  0  0  0  0  0  0  0  0  0
    7.5102   -8.9610   12.4633 H   0  0  0  0  0  0  0  0  0  0  0  0
    0.5539  -13.3536   11.4520 H   0  0  0  0  0  0  0  0  0  0  0  0
  1  2  1  0
  2  3  1  0
  2  4  1  0
  4  5  2  0
  5  6  1  0
  6  7  2  0
  7  8  1  0
  8  9  2  0
  9 10  1  0
 10 11  1  0
 11 12  1  0
 12 13  2  0
 13 14  1  0
 14 15  2  0
 15 16  1  0
 16 17  1  0
 17 18  2  0
 18 19  1  0
 19 20  1  0
  9 21  1  0
 21 22  2  0
 22 23  1  0
 23  4  1  0
 22  6  1  0
 20 12  1  0
 20 16  2  0
  1 24  1  0
  1 25  1  0
  1 26  1  0
  3 27  1  0
  3 28  1  0
  3 29  1  0
  7 30  1  0
  8 31  1  0
 10 32  1  0
 11 33  1  0
 11 34  1  0
 13 35  1  0
 14 36  1  0
 15 37  1  0
 17 38  1  0
 18 39  1  0
 19 40  1  0
 21 41  1  0
M  END
>  <Energy>  (1001) 
4366.6151467526361

>  <compound_id>  (1001) 
76782

>  <target_id>  (1001) 
1

>  <reference_id>  (1001) 
2

>  <inspiration_ids>  (1001) 
[2, 97]

>  <energy_score>  (1001) 
4354.752039602122

>  <distance_score>  (1001) 
9.935429249134854

>  <path>  (1001) 
/opt/xchem-fragalysis-2/maxwin/BulkDock/SCRATCH/511022/C76782-P2/C76782-P2.minimised.mol

>  <scratch_subdir>  (1001) 
/opt/xchem-fragalysis-2/maxwin/BulkDock/SCRATCH/511022/C76782-P2

>  <fragmenstein_runtime>  (1001) 
13.806128740310669

>  <fragmenstein_outcome>  (1001) 
too moved

>  <fragmenstein_mode>  (1001) 
expansion

>  <fragmenstein_error>  (1001) 


$$$$
C76782-P97
     RDKit          3D

 41 44  0  0  0  0  0  0  0  0999 V2000
   -2.3415  -19.9651   12.8108 C   0  0  0  0  0  0  0  0  0  0  0  0
   -1.1633  -19.8701   11.9600 N   0  0  0  0  0  0  0  0  0  0  0  0
   -0.0437  -20.7430   12.3006 C   0  0  0  0  0  0  0  0  0  0  0  0
   -1.0202  -19.1104   10.8333 C   0  0  0  0  0  0  0  0  0  0  0  0
    0.0348  -19.0920   10.0620 N   0  0  0  0  0  0  0  0  0  0  0  0
    0.3228  -17.7676   10.1187 C   0  0  0  0  0  0  0  0  0  0  0  0
    1.4893  -17.1475    9.8379 C   0  0  0  0  0  0  0  0  0  0  0  0
    1.5298  -15.8456   10.3565 C   0  0  0  0  0  0  0  0  0  0  0  0
    0.5347  -14.9655   11.2365 C   0  0  0  0  0  0  0  0  0  0  0  0
    0.7632  -13.2502   11.5830 N   0  0  0  0  0  0  0  0  0  0  0  0
    1.7445  -11.6005   11.1732 C   0  0  0  0  0  0  0  0  0  0  0  0
    3.0572  -10.1988   11.5708 C   0  0  0  0  0  0  0  0  0  0  0  0
    3.8775  -10.3291   13.1473 C   0  0  0  0  0  0  0  0  0  0  0  0
    4.4573   -9.0983   13.7355 C   0  0  0  0  0  0  0  0  0  0  0  0
    4.5462   -7.6068   13.4209 C   0  0  0  0  0  0  0  0  0  0  0  0
    3.9527   -7.1160   12.1658 C   0  0  0  0  0  0  0  0  0  0  0  0
    3.9421   -5.8229   11.5595 C   0  0  0  0  0  0  0  0  0  0  0  0
    3.9361   -6.1091   10.2391 C   0  0  0  0  0  0  0  0  0  0  0  0
    4.1661   -7.4650   10.2106 N   0  0  0  0  0  0  0  0  0  0  0  0
    3.3686   -8.3238   11.3755 C   0  0  0  0  0  0  0  0  0  0  0  0
   -0.7084  -15.5812   11.0239 C   0  0  0  0  0  0  0  0  0  0  0  0
   -0.7304  -16.9974   10.5762 C   0  0  0  0  0  0  0  0  0  0  0  0
   -1.7475  -17.9459   10.6591 O   0  0  0  0  0  0  0  0  0  0  0  0
   -2.4108  -20.9565   13.2748 H   0  0  0  0  0  0  0  0  0  0  0  0
   -2.2954  -19.2685   13.6487 H   0  0  0  0  0  0  0  0  0  0  0  0
   -3.2721  -19.8102   12.2635 H   0  0  0  0  0  0  0  0  0  0  0  0
   -0.1902  -21.2287   13.2717 H   0  0  0  0  0  0  0  0  0  0  0  0
    0.8894  -20.1721   12.3729 H   0  0  0  0  0  0  0  0  0  0  0  0
    0.0816  -21.5304   11.5498 H   0  0  0  0  0  0  0  0  0  0  0  0
    2.3294  -17.6211    9.3515 H   0  0  0  0  0  0  0  0  0  0  0  0
    2.4314  -15.3870    9.9044 H   0  0  0  0  0  0  0  0  0  0  0  0
   -0.0196  -13.0034   12.1940 H   0  0  0  0  0  0  0  0  0  0  0  0
    2.6134  -12.2042   10.8960 H   0  0  0  0  0  0  0  0  0  0  0  0
    1.1954  -11.2146   12.0090 H   0  0  0  0  0  0  0  0  0  0  0  0
    4.1613  -11.1173   13.8276 H   0  0  0  0  0  0  0  0  0  0  0  0
    5.2769   -9.5350   14.2656 H   0  0  0  0  0  0  0  0  0  0  0  0
    5.2202   -6.9703   13.9328 H   0  0  0  0  0  0  0  0  0  0  0  0
    4.1453   -4.8628   12.0114 H   0  0  0  0  0  0  0  0  0  0  0  0
    4.0763   -5.4950    9.3602 H   0  0  0  0  0  0  0  0  0  0  0  0
    4.6416   -7.9555    9.4715 H   0  0  0  0  0  0  0  0  0  0  0  0
   -1.6502  -15.0764   11.1422 H   0  0  0  0  0  0  0  0  0  0  0  0
  1  2  1  0
  2  3  1  0
  2  4  1  0
  4  5  2  0
  5  6  1  0
  6  7  2  0
  7  8  1  0
  8  9  2  0
  9 10  1  0
 10 11  1  0
 11 12  1  0
 12 13  2  0
 13 14  1  0
 14 15  2  0
 15 16  1  0
 16 17  1  0
 17 18  2  0
 18 19  1  0
 19 20  1  0
  9 21  1  0
 21 22  2  0
 22 23  1  0
 23  4  1  0
 22  6  1  0
 20 12  1  0
 20 16  2  0
  1 24  1  0
  1 25  1  0
  1 26  1  0
  3 27  1  0
  3 28  1  0
  3 29  1  0
  7 30  1  0
  8 31  1  0
 10 32  1  0
 11 33  1  0
 11 34  1  0
 13 35  1  0
 14 36  1  0
 15 37  1  0
 17 38  1  0
 18 39  1  0
 19 40  1  0
 21 41  1  0
M  END
>  <Energy>  (1002) 
585.76878948014451

>  <compound_id>  (1002) 
76782

>  <target_id>  (1002) 
1

>  <reference_id>  (1002) 
97

>  <inspiration_ids>  (1002) 
[2, 97]

>  <energy_score>  (1002) 
573.905682329594

>  <distance_score>  (1002) 
11.088748680053044

>  <path>  (1002) 
/opt/xchem-fragalysis-2/maxwin/BulkDock/SCRATCH/511022/C76782-P97/C76782-P97.minimised.mol

>  <scratch_subdir>  (1002) 
/opt/xchem-fragalysis-2/maxwin/BulkDock/SCRATCH/511022/C76782-P97

>  <fragmenstein_runtime>  (1002) 
18.418264627456665

>  <fragmenstein_outcome>  (1002) 
too moved

>  <fragmenstein_mode>  (1002) 
expansion

>  <fragmenstein_error>  (1002) 


$$$$
C76783-P2
     RDKit          3D

 41 44  0  0  0  0  0  0  0  0999 V2000
   -6.5074  -20.2874   11.5538 C   0  0  0  0  0  0  0  0  0  0  0  0
   -4.9441  -19.5624   12.1877 N   0  0  0  0  0  0  0  0  0  0  0  0
   -6.0146  -18.4990   12.5006 C   0  0  0  0  0  0  0  0  0  0  0  0
   -3.2675  -19.5249   11.4709 C   0  0  0  0  0  0  0  0  0  0  0  0
   -2.6873  -18.9846   10.2674 N   0  0  0  0  0  0  0  0  0  0  0  0
   -1.1773  -18.4372   10.2842 C   0  0  0  0  0  0  0  0  0  0  0  0
   -0.2163  -17.6457    9.3650 C   0  0  0  0  0  0  0  0  0  0  0  0
    1.3649  -17.0750    9.5005 C   0  0  0  0  0  0  0  0  0  0  0  0
    2.2285  -17.2796   10.6051 C   0  0  0  0  0  0  0  0  0  0  0  0
    3.9959  -16.8199   10.7077 N   0  0  0  0  0  0  0  0  0  0  0  0
    5.3184  -15.2904   10.6087 C   0  0  0  0  0  0  0  0  0  0  0  0
    6.1389  -14.0683   11.9904 C   0  0  0  0  0  0  0  0  0  0  0  0
    5.9106  -12.7534   12.9780 C   0  0  0  0  0  0  0  0  0  0  0  0
    5.4711  -11.5494   13.4612 C   0  0  0  0  0  0  0  0  0  0  0  0
    4.6488  -10.5380   13.6308 C   0  0  0  0  0  0  0  0  0  0  0  0
    5.5825  -10.1807   14.4044 C   0  0  0  0  0  0  0  0  0  0  0  0
    5.3857  -10.7344   15.7431 C   0  0  0  0  0  0  0  0  0  0  0  0
    4.7924  -11.8420   15.7345 C   0  0  0  0  0  0  0  0  0  0  0  0
    5.2478  -12.4037   14.4308 C   0  0  0  0  0  0  0  0  0  0  0  0
    6.2242  -13.6343   13.7288 N   0  0  0  0  0  0  0  0  0  0  0  0
    1.2100  -18.2706   11.5513 C   0  0  0  0  0  0  0  0  0  0  0  0
   -0.4861  -18.7333   11.4430 C   0  0  0  0  0  0  0  0  0  0  0  0
   -1.7596  -19.4163   12.3250 O   0  0  0  0  0  0  0  0  0  0  0  0
   -6.7333  -20.0165   10.5293 H   0  0  0  0  0  0  0  0  0  0  0  0
   -6.7084  -21.3030   11.9512 H   0  0  0  0  0  0  0  0  0  0  0  0
   -7.4488  -19.8807   11.9311 H   0  0  0  0  0  0  0  0  0  0  0  0
   -6.6718  -18.9685   13.1575 H   0  0  0  0  0  0  0  0  0  0  0  0
   -6.4671  -18.1785   11.5977 H   0  0  0  0  0  0  0  0  0  0  0  0
   -6.1882  -17.5600   13.0607 H   0  0  0  0  0  0  0  0  0  0  0  0
   -0.6749  -17.3979    8.4015 H   0  0  0  0  0  0  0  0  0  0  0  0
    1.7287  -16.5437    8.6220 H   0  0  0  0  0  0  0  0  0  0  0  0
    4.0590  -17.1348   11.6899 H   0  0  0  0  0  0  0  0  0  0  0  0
    4.8082  -14.5412    9.9584 H   0  0  0  0  0  0  0  0  0  0  0  0
    6.0887  -15.6469    9.9122 H   0  0  0  0  0  0  0  0  0  0  0  0
    4.9502  -12.6911   12.3999 H   0  0  0  0  0  0  0  0  0  0  0  0
    3.9679  -10.0367   13.0465 H   0  0  0  0  0  0  0  0  0  0  0  0
    6.3096   -9.3847   14.1957 H   0  0  0  0  0  0  0  0  0  0  0  0
    5.8785  -10.4489   16.6821 H   0  0  0  0  0  0  0  0  0  0  0  0
    4.7573  -12.2074   16.7633 H   0  0  0  0  0  0  0  0  0  0  0  0
    7.0341  -13.9399   14.2962 H   0  0  0  0  0  0  0  0  0  0  0  0
    1.6660  -18.7490   12.4217 H   0  0  0  0  0  0  0  0  0  0  0  0
  1  2  1  0
  2  3  1  0
  2  4  1  0
  4  5  2  0
  5  6  1  0
  6  7  2  0
  7  8  1  0
  8  9  2  0
  9 10  1  0
 10 11  1  0
 11 12  1  0
 12 13  2  0
 13 14  1  0
 14 15  2  0
 15 16  1  0
 16 17  2  0
 17 18  1  0
 18 19  2  0
 19 20  1  0
  9 21  1  0
 21 22  2  0
 22 23  1  0
 23  4  1  0
 22  6  1  0
 20 12  1  0
 19 14  1  0
  1 24  1  0
  1 25  1  0
  1 26  1  0
  3 27  1  0
  3 28  1  0
  3 29  1  0
  7 30  1  0
  8 31  1  0
 10 32  1  0
 11 33  1  0
 11 34  1  0
 13 35  1  0
 15 36  1  0
 16 37  1  0
 17 38  1  0
 18 39  1  0
 20 40  1  0
 21 41  1  0
M  END
>  <Energy>  (1003) 
1264.0546251411174

>  <compound_id>  (1003) 
76783

>  <target_id>  (1003) 
1

>  <reference_id>  (1003) 
2

>  <inspiration_ids>  (1003) 
[2, 97]

>  <energy_score>  (1003) 
1254.819062808455

>  <distance_score>  (1003) 
11.586614761017374

>  <path>  (1003) 
/opt/xchem-fragalysis-2/maxwin/BulkDock/SCRATCH/511022/C76783-P2/C76783-P2.minimised.mol

>  <scratch_subdir>  (1003) 
/opt/xchem-fragalysis-2/maxwin/BulkDock/SCRATCH/511022/C76783-P2

>  <fragmenstein_runtime>  (1003) 
13.840043067932129

>  <fragmenstein_outcome>  (1003) 
too moved

>  <fragmenstein_mode>  (1003) 
expansion

>  <fragmenstein_error>  (1003) 


$$$$
C76783-P97
     RDKit          3D

 41 44  0  0  0  0  0  0  0  0999 V2000
   -9.5864  -20.1319    6.7169 C   0  0  0  0  0  0  0  0  0  0  0  0
   -9.3355  -19.5888    8.1254 N   0  0  0  0  0  0  0  0  0  0  0  0
   -9.4441  -20.7103    9.0536 C   0  0  0  0  0  0  0  0  0  0  0  0
   -8.2401  -18.4136    8.3942 C   0  0  0  0  0  0  0  0  0  0  0  0
   -7.8891  -17.1671    8.2161 N   0  0  0  0  0  0  0  0  0  0  0  0
   -6.9221  -16.4064    8.9377 C   0  0  0  0  0  0  0  0  0  0  0  0
   -5.9810  -15.0112    8.6046 C   0  0  0  0  0  0  0  0  0  0  0  0
   -4.4115  -15.1880    8.2488 C   0  0  0  0  0  0  0  0  0  0  0  0
   -3.5555  -16.5184    8.2850 C   0  0  0  0  0  0  0  0  0  0  0  0
   -2.1374  -16.6705    8.3670 N   0  0  0  0  0  0  0  0  0  0  0  0
   -1.4531  -17.3261    9.6566 C   0  0  0  0  0  0  0  0  0  0  0  0
   -0.9099  -16.3054   10.6432 C   0  0  0  0  0  0  0  0  0  0  0  0
   -1.4050  -15.0397   10.6520 C   0  0  0  0  0  0  0  0  0  0  0  0
   -0.4860  -14.1560   11.2442 C   0  0  0  0  0  0  0  0  0  0  0  0
   -0.1441  -12.7659   11.3283 C   0  0  0  0  0  0  0  0  0  0  0  0
    0.4220  -12.0773   12.2499 C   0  0  0  0  0  0  0  0  0  0  0  0
    0.3832  -12.8605   13.2963 C   0  0  0  0  0  0  0  0  0  0  0  0
   -0.0203  -14.1967   13.2904 C   0  0  0  0  0  0  0  0  0  0  0  0
    0.1031  -14.9553   12.1430 C   0  0  0  0  0  0  0  0  0  0  0  0
   -0.0026  -16.2772   11.6941 N   0  0  0  0  0  0  0  0  0  0  0  0
   -4.2511  -17.7693    8.5383 C   0  0  0  0  0  0  0  0  0  0  0  0
   -6.0585  -17.9893    8.7841 C   0  0  0  0  0  0  0  0  0  0  0  0
   -7.0564  -18.8110    9.0723 O   0  0  0  0  0  0  0  0  0  0  0  0
   -8.9642  -19.6893    5.9297 H   0  0  0  0  0  0  0  0  0  0  0  0
  -10.6337  -20.0762    6.4429 H   0  0  0  0  0  0  0  0  0  0  0  0
   -9.4181  -21.2161    6.6602 H   0  0  0  0  0  0  0  0  0  0  0  0
   -8.8686  -21.5874    8.8240 H   0  0  0  0  0  0  0  0  0  0  0  0
   -9.2562  -20.4648   10.1005 H   0  0  0  0  0  0  0  0  0  0  0  0
  -10.4189  -21.1627    8.8496 H   0  0  0  0  0  0  0  0  0  0  0  0
   -6.4937  -14.0615    8.5155 H   0  0  0  0  0  0  0  0  0  0  0  0
   -3.9566  -14.2135    8.1660 H   0  0  0  0  0  0  0  0  0  0  0  0
   -1.9108  -17.3421    7.6301 H   0  0  0  0  0  0  0  0  0  0  0  0
   -0.6013  -17.8995    9.2716 H   0  0  0  0  0  0  0  0  0  0  0  0
   -2.1213  -18.0298   10.1493 H   0  0  0  0  0  0  0  0  0  0  0  0
   -2.2342  -14.8783    9.9964 H   0  0  0  0  0  0  0  0  0  0  0  0
   -0.3578  -11.9395   10.6979 H   0  0  0  0  0  0  0  0  0  0  0  0
    0.8195  -11.1089   12.0451 H   0  0  0  0  0  0  0  0  0  0  0  0
    0.9949  -12.5213   14.1050 H   0  0  0  0  0  0  0  0  0  0  0  0
   -0.2703  -14.6285   14.2518 H   0  0  0  0  0  0  0  0  0  0  0  0
    0.3074  -17.0927   12.2015 H   0  0  0  0  0  0  0  0  0  0  0  0
   -3.6524  -18.6532    8.8372 H   0  0  0  0  0  0  0  0  0  0  0  0
  1  2  1  0
  2  3  1  0
  2  4  1  0
  4  5  2  0
  5  6  1  0
  6  7  2  0
  7  8  1  0
  8  9  2  0
  9 10  1  0
 10 11  1  0
 11 12  1  0
 12 13  2  0
 13 14  1  0
 14 15  2  0
 15 16  1  0
 16 17  2  0
 17 18  1  0
 18 19  2  0
 19 20  1  0
  9 21  1  0
 21 22  2  0
 22 23  1  0
 23  4  1  0
 22  6  1  0
 20 12  1  0
 19 14  1  0
  1 24  1  0
  1 25  1  0
  1 26  1  0
  3 27  1  0
  3 28  1  0
  3 29  1  0
  7 30  1  0
  8 31  1  0
 10 32  1  0
 11 33  1  0
 11 34  1  0
 13 35  1  0
 15 36  1  0
 16 37  1  0
 17 38  1  0
 18 39  1  0
 20 40  1  0
 21 41  1  0
M  END
>  <Energy>  (1004) 
417.88100884804334

>  <compound_id>  (1004) 
76783

>  <target_id>  (1004) 
1

>  <reference_id>  (1004) 
97

>  <inspiration_ids>  (1004) 
[2, 97]

>  <energy_score>  (1004) 
408.64544651539876

>  <distance_score>  (1004) 
14.29704707126787

>  <path>  (1004) 
/opt/xchem-fragalysis-2/maxwin/BulkDock/SCRATCH/511022/C76783-P97/C76783-P97.minimised.mol

>  <scratch_subdir>  (1004) 
/opt/xchem-fragalysis-2/maxwin/BulkDock/SCRATCH/511022/C76783-P97

>  <fragmenstein_runtime>  (1004) 
15.996906757354736

>  <fragmenstein_outcome>  (1004) 
too moved

>  <fragmenstein_mode>  (1004) 
expansion

>  <fragmenstein_error>  (1004) 


$$$$
C14453-P2
     RDKit          3D

 40 44  0  0  0  0  0  0  0  0999 V2000
    6.8829   -7.6111   14.6330 C   0  0  0  0  0  0  0  0  0  0  0  0
    6.6537   -8.6927   13.9233 C   0  0  0  0  0  0  0  0  0  0  0  0
    7.6329  -10.2280   14.6013 C   0  0  0  0  0  0  0  0  0  0  0  0
    5.5925  -11.0663   14.3680 C   0  0  0  0  0  0  0  0  0  0  0  0
    3.8068  -11.7716   15.2467 N   0  0  0  0  0  0  0  0  0  0  0  0
    1.9802  -12.7294   15.2000 C   0  0  0  0  0  0  0  0  0  0  0  0
    1.2274  -13.8116   16.5677 C   0  0  0  0  0  0  0  0  0  0  0  0
   -0.3781  -14.6550   16.5774 C   0  0  0  0  0  0  0  0  0  0  0  0
   -1.5468  -15.2341   15.3248 C   0  0  0  0  0  0  0  0  0  0  0  0
   -1.6313  -17.3262   15.2738 N   0  0  0  0  0  0  0  0  0  0  0  0
   -0.9004  -18.3215   13.7441 C   0  0  0  0  0  0  0  0  0  0  0  0
   -0.1627  -19.6847   13.6937 C   0  0  0  0  0  0  0  0  0  0  0  0
   -0.8609  -20.9029   13.1581 C   0  0  0  0  0  0  0  0  0  0  0  0
   -0.5746  -20.7856   14.6297 C   0  0  0  0  0  0  0  0  0  0  0  0
   -0.1329  -16.5408   13.0400 O   0  0  0  0  0  0  0  0  0  0  0  0
   -0.4952  -14.6126   13.6397 C   0  0  0  0  0  0  0  0  0  0  0  0
    0.8696  -13.3272   13.7480 C   0  0  0  0  0  0  0  0  0  0  0  0
    9.4173   -9.5823   15.4821 C   0  0  0  0  0  0  0  0  0  0  0  0
   10.0877   -7.5915   15.4684 C   0  0  0  0  0  0  0  0  0  0  0  0
   11.1946   -6.2933   16.2299 C   0  0  0  0  0  0  0  0  0  0  0  0
   11.6111   -7.3119   15.7486 N   0  0  0  0  0  0  0  0  0  0  0  0
    9.7276   -7.8193   15.2669 C   0  0  0  0  0  0  0  0  0  0  0  0
    8.2779   -6.9621   14.7801 C   0  0  0  0  0  0  0  0  0  0  0  0
    6.2317   -6.8784   15.0738 H   0  0  0  0  0  0  0  0  0  0  0  0
    5.5262   -8.6948   13.9305 H   0  0  0  0  0  0  0  0  0  0  0  0
    5.7776  -11.9234   13.6912 H   0  0  0  0  0  0  0  0  0  0  0  0
    5.0370  -10.4066   13.7274 H   0  0  0  0  0  0  0  0  0  0  0  0
    3.8776  -11.7936   16.2667 H   0  0  0  0  0  0  0  0  0  0  0  0
    1.7485  -14.0527   17.5124 H   0  0  0  0  0  0  0  0  0  0  0  0
   -0.5750  -15.1827   17.5223 H   0  0  0  0  0  0  0  0  0  0  0  0
    0.8967  -19.5897   13.4787 H   0  0  0  0  0  0  0  0  0  0  0  0
   -1.8887  -20.8167   12.8215 H   0  0  0  0  0  0  0  0  0  0  0  0
   -0.2766  -21.6089   12.5794 H   0  0  0  0  0  0  0  0  0  0  0  0
    0.2064  -21.4097   15.0472 H   0  0  0  0  0  0  0  0  0  0  0  0
   -1.4032  -20.6023   15.3015 H   0  0  0  0  0  0  0  0  0  0  0  0
    0.5104  -12.5379   13.0658 H   0  0  0  0  0  0  0  0  0  0  0  0
   10.7839   -6.8793   14.4547 H   0  0  0  0  0  0  0  0  0  0  0  0
   11.4208   -5.2430   16.0078 H   0  0  0  0  0  0  0  0  0  0  0  0
   12.2785   -8.0665   15.9744 H   0  0  0  0  0  0  0  0  0  0  0  0
    8.0785   -5.9992   15.1970 H   0  0  0  0  0  0  0  0  0  0  0  0
  1  2  2  0
  2  3  1  0
  3  4  1  0
  4  5  1  0
  5  6  1  0
  6  7  2  0
  7  8  1  0
  8  9  2  0
  9 10  1  0
 10 11  2  0
 11 12  1  0
 12 13  1  0
 13 14  1  0
 11 15  1  0
 15 16  1  0
 16 17  2  0
  3 18  2  0
 18 19  1  0
 19 20  2  0
 20 21  1  0
 21 22  1  0
 22 23  2  0
 23  1  1  0
 17  6  1  0
 22 18  1  0
 16  9  1  0
 14 12  1  0
  1 24  1  0
  2 25  1  0
  4 26  1  0
  4 27  1  0
  5 28  1  0
  7 29  1  0
  8 30  1  0
 12 31  1  0
 13 32  1  0
 13 33  1  0
 14 34  1  0
 14 35  1  0
 17 36  1  0
 19 37  1  0
 20 38  1  0
 21 39  1  0
 23 40  1  0
M  END
>  <Energy>  (1005) 
3109.5940204500844

>  <compound_id>  (1005) 
14453

>  <target_id>  (1005) 
1

>  <reference_id>  (1005) 
2

>  <inspiration_ids>  (1005) 
[2, 97]

>  <energy_score>  (1005) 
3041.646738403252

>  <distance_score>  (1005) 
10.776777830136501

>  <path>  (1005) 
/opt/xchem-fragalysis-2/maxwin/BulkDock/SCRATCH/511022/C14453-P2/C14453-P2.minimised.mol

>  <scratch_subdir>  (1005) 
/opt/xchem-fragalysis-2/maxwin/BulkDock/SCRATCH/511022/C14453-P2

>  <fragmenstein_runtime>  (1005) 
14.822919130325317

>  <fragmenstein_outcome>  (1005) 
too moved

>  <fragmenstein_mode>  (1005) 
expansion

>  <fragmenstein_error>  (1005) 


$$$$
C14453-P97
     RDKit          3D

 40 44  0  0  0  0  0  0  0  0999 V2000
    3.3494   -6.3916   14.7278 C   0  0  0  0  0  0  0  0  0  0  0  0
    3.7364   -8.1814   13.9934 C   0  0  0  0  0  0  0  0  0  0  0  0
    4.0779   -9.7603   13.3455 C   0  0  0  0  0  0  0  0  0  0  0  0
    3.2327  -10.8409   11.6280 C   0  0  0  0  0  0  0  0  0  0  0  0
    2.8038  -12.6395   10.5640 N   0  0  0  0  0  0  0  0  0  0  0  0
    2.8900  -14.3393    9.5579 C   0  0  0  0  0  0  0  0  0  0  0  0
    2.5103  -15.8214   10.1133 C   0  0  0  0  0  0  0  0  0  0  0  0
    1.2914  -16.9385   10.5605 C   0  0  0  0  0  0  0  0  0  0  0  0
    0.0929  -17.1394    9.8425 C   0  0  0  0  0  0  0  0  0  0  0  0
   -1.3878  -17.6644   10.0375 N   0  0  0  0  0  0  0  0  0  0  0  0
   -2.2878  -17.4106    9.0191 C   0  0  0  0  0  0  0  0  0  0  0  0
   -4.2023  -18.2496    8.9657 C   0  0  0  0  0  0  0  0  0  0  0  0
   -6.1429  -18.1702    9.7145 C   0  0  0  0  0  0  0  0  0  0  0  0
   -6.0609  -18.1863    8.4438 C   0  0  0  0  0  0  0  0  0  0  0  0
   -1.0702  -17.0439    7.8639 O   0  0  0  0  0  0  0  0  0  0  0  0
    0.4967  -16.6751    8.5978 C   0  0  0  0  0  0  0  0  0  0  0  0
    1.7454  -15.3128    8.5156 C   0  0  0  0  0  0  0  0  0  0  0  0
    4.5415   -8.0053   13.9574 C   0  0  0  0  0  0  0  0  0  0  0  0
    6.1318   -7.6364   14.3186 C   0  0  0  0  0  0  0  0  0  0  0  0
    6.2989   -6.6406   15.5912 C   0  0  0  0  0  0  0  0  0  0  0  0
    5.2419   -6.4275   16.4536 N   0  0  0  0  0  0  0  0  0  0  0  0
    3.9817   -6.6778   15.3385 C   0  0  0  0  0  0  0  0  0  0  0  0
    2.9030   -6.1415   15.8909 C   0  0  0  0  0  0  0  0  0  0  0  0
    3.1042   -5.4924   13.9799 H   0  0  0  0  0  0  0  0  0  0  0  0
    2.9300   -8.6421   14.8852 H   0  0  0  0  0  0  0  0  0  0  0  0
    4.1567  -11.2317   11.3371 H   0  0  0  0  0  0  0  0  0  0  0  0
    2.2340  -11.0261   11.9826 H   0  0  0  0  0  0  0  0  0  0  0  0
    3.1421  -12.2314    9.6701 H   0  0  0  0  0  0  0  0  0  0  0  0
    3.4313  -16.4725   10.0461 H   0  0  0  0  0  0  0  0  0  0  0  0
    1.5643  -17.6381   11.3518 H   0  0  0  0  0  0  0  0  0  0  0  0
   -3.7871  -19.2684    9.1088 H   0  0  0  0  0  0  0  0  0  0  0  0
   -6.7182  -18.9089   10.4901 H   0  0  0  0  0  0  0  0  0  0  0  0
   -6.4475  -17.4462   10.6739 H   0  0  0  0  0  0  0  0  0  0  0  0
   -6.3997  -18.5380    7.5570 H   0  0  0  0  0  0  0  0  0  0  0  0
   -7.1092  -17.7902    8.3305 H   0  0  0  0  0  0  0  0  0  0  0  0
    1.5542  -14.8684    7.5123 H   0  0  0  0  0  0  0  0  0  0  0  0
    6.7616   -7.9218   13.5086 H   0  0  0  0  0  0  0  0  0  0  0  0
    7.1216   -5.9974   15.8648 H   0  0  0  0  0  0  0  0  0  0  0  0
    5.1002   -5.7591   17.2001 H   0  0  0  0  0  0  0  0  0  0  0  0
    2.8404   -5.2103   16.4239 H   0  0  0  0  0  0  0  0  0  0  0  0
  1  2  2  0
  2  3  1  0
  3  4  1  0
  4  5  1  0
  5  6  1  0
  6  7  2  0
  7  8  1  0
  8  9  2  0
  9 10  1  0
 10 11  2  0
 11 12  1  0
 12 13  1  0
 13 14  1  0
 11 15  1  0
 15 16  1  0
 16 17  2  0
  3 18  2  0
 18 19  1  0
 19 20  2  0
 20 21  1  0
 21 22  1  0
 22 23  2  0
 23  1  1  0
 17  6  1  0
 22 18  1  0
 16  9  1  0
 14 12  1  0
  1 24  1  0
  2 25  1  0
  4 26  1  0
  4 27  1  0
  5 28  1  0
  7 29  1  0
  8 30  1  0
 12 31  1  0
 13 32  1  0
 13 33  1  0
 14 34  1  0
 14 35  1  0
 17 36  1  0
 19 37  1  0
 20 38  1  0
 21 39  1  0
 23 40  1  0
M  END
>  <Energy>  (1006) 
2268.431041147101

>  <compound_id>  (1006) 
14453

>  <target_id>  (1006) 
1

>  <reference_id>  (1006) 
97

>  <inspiration_ids>  (1006) 
[2, 97]

>  <energy_score>  (1006) 
2200.483759100308

>  <distance_score>  (1006) 
10.8190102360061

>  <path>  (1006) 
/opt/xchem-fragalysis-2/maxwin/BulkDock/SCRATCH/511022/C14453-P97/C14453-P97.minimised.mol

>  <scratch_subdir>  (1006) 
/opt/xchem-fragalysis-2/maxwin/BulkDock/SCRATCH/511022/C14453-P97

>  <fragmenstein_runtime>  (1006) 
18.42687201499939

>  <fragmenstein_outcome>  (1006) 
too moved

>  <fragmenstein_mode>  (1006) 
expansion

>  <fragmenstein_error>  (1006) 


$$$$
C76786-P2
     RDKit          3D

 40 43  0  0  0  0  0  0  0  0999 V2000
    3.0872  -11.4532    9.7611 C   0  0  0  0  0  0  0  0  0  0  0  0
    2.5052  -11.3647   11.1692 N   0  0  0  0  0  0  0  0  0  0  0  0
    2.9619   -9.6054   10.9642 C   0  0  0  0  0  0  0  0  0  0  0  0
    3.0016   -7.6161   11.3966 C   0  0  0  0  0  0  0  0  0  0  0  0
    4.0680   -6.6607   11.9204 C   0  0  0  0  0  0  0  0  0  0  0  0
    4.1509   -5.2488   11.8713 C   0  0  0  0  0  0  0  0  0  0  0  0
    3.1156   -4.4870   11.4582 C   0  0  0  0  0  0  0  0  0  0  0  0
    1.9899   -5.1814   11.0719 C   0  0  0  0  0  0  0  0  0  0  0  0
    0.7754   -4.6290   10.6052 C   0  0  0  0  0  0  0  0  0  0  0  0
    0.0368   -5.6713   10.1439 C   0  0  0  0  0  0  0  0  0  0  0  0
    0.7495   -6.8136   10.3669 N   0  0  0  0  0  0  0  0  0  0  0  0
    1.9492   -6.6055   11.0091 C   0  0  0  0  0  0  0  0  0  0  0  0
    1.0054  -12.0978   11.2338 C   0  0  0  0  0  0  0  0  0  0  0  0
   -0.0576  -11.5662   11.0559 O   0  0  0  0  0  0  0  0  0  0  0  0
    0.7674  -13.9366   11.4405 C   0  0  0  0  0  0  0  0  0  0  0  0
   -0.3190  -14.3025   12.0555 C   0  0  0  0  0  0  0  0  0  0  0  0
   -1.2886  -14.8633   11.2027 C   0  0  0  0  0  0  0  0  0  0  0  0
   -1.0824  -15.7242   10.1465 C   0  0  0  0  0  0  0  0  0  0  0  0
    0.1922  -16.1463    9.9865 C   0  0  0  0  0  0  0  0  0  0  0  0
    0.6516  -16.9454    8.9696 N   0  0  0  0  0  0  0  0  0  0  0  0
    1.8973  -16.6503    8.9229 C   0  0  0  0  0  0  0  0  0  0  0  0
    2.7954  -17.1805    8.0930 N   0  0  0  0  0  0  0  0  0  0  0  0
    2.2565  -15.6174    9.7280 O   0  0  0  0  0  0  0  0  0  0  0  0
    1.0946  -15.2746   10.5308 C   0  0  0  0  0  0  0  0  0  0  0  0
    3.8238  -10.8331    9.2708 H   0  0  0  0  0  0  0  0  0  0  0  0
    3.6738  -12.3393   10.0578 H   0  0  0  0  0  0  0  0  0  0  0  0
    2.7353  -12.0947    8.9491 H   0  0  0  0  0  0  0  0  0  0  0  0
    3.2696   -9.9029   11.9393 H   0  0  0  0  0  0  0  0  0  0  0  0
    3.8163   -9.5701   10.2938 H   0  0  0  0  0  0  0  0  0  0  0  0
    4.7970   -7.0070   12.6733 H   0  0  0  0  0  0  0  0  0  0  0  0
    4.9799   -4.6904   12.2426 H   0  0  0  0  0  0  0  0  0  0  0  0
    3.1612   -3.4043   11.4579 H   0  0  0  0  0  0  0  0  0  0  0  0
    0.5121   -3.5819   10.5394 H   0  0  0  0  0  0  0  0  0  0  0  0
   -0.9244   -5.7064    9.6490 H   0  0  0  0  0  0  0  0  0  0  0  0
    0.4993   -7.7133    9.9951 H   0  0  0  0  0  0  0  0  0  0  0  0
   -0.4207  -13.8261   13.0240 H   0  0  0  0  0  0  0  0  0  0  0  0
   -2.3506  -14.7974   11.4206 H   0  0  0  0  0  0  0  0  0  0  0  0
   -1.8738  -16.0940    9.4919 H   0  0  0  0  0  0  0  0  0  0  0  0
    2.4825  -18.0698    7.7149 H   0  0  0  0  0  0  0  0  0  0  0  0
    3.7332  -17.2420    8.4673 H   0  0  0  0  0  0  0  0  0  0  0  0
  1  2  1  0
  2  3  1  0
  3  4  1  0
  4  5  2  0
  5  6  1  0
  6  7  2  0
  7  8  1  0
  8  9  1  0
  9 10  2  0
 10 11  1  0
 11 12  1  0
  2 13  1  0
 13 14  2  0
 13 15  1  0
 15 16  2  0
 16 17  1  0
 17 18  2  0
 18 19  1  0
 19 20  1  0
 20 21  2  0
 21 22  1  0
 21 23  1  0
 23 24  1  0
 12  4  1  0
 24 15  1  0
 12  8  2  0
 24 19  2  0
  1 25  1  0
  1 26  1  0
  1 27  1  0
  3 28  1  0
  3 29  1  0
  5 30  1  0
  6 31  1  0
  7 32  1  0
  9 33  1  0
 10 34  1  0
 11 35  1  0
 16 36  1  0
 17 37  1  0
 18 38  1  0
 22 39  1  0
 22 40  1  0
M  END
>  <Energy>  (1007) 
448.58378923383009

>  <compound_id>  (1007) 
76786

>  <target_id>  (1007) 
1

>  <reference_id>  (1007) 
2

>  <inspiration_ids>  (1007) 
[2, 97]

>  <energy_score>  (1007) 
434.5779992583546

>  <distance_score>  (1007) 
12.279554169093352

>  <path>  (1007) 
/opt/xchem-fragalysis-2/maxwin/BulkDock/SCRATCH/511022/C76786-P2/C76786-P2.minimised.mol

>  <scratch_subdir>  (1007) 
/opt/xchem-fragalysis-2/maxwin/BulkDock/SCRATCH/511022/C76786-P2

>  <fragmenstein_runtime>  (1007) 
19.586801052093506

>  <fragmenstein_outcome>  (1007) 
too moved

>  <fragmenstein_mode>  (1007) 
expansion

>  <fragmenstein_error>  (1007) 


$$$$
C76786-P97
     RDKit          3D

 40 43  0  0  0  0  0  0  0  0999 V2000
   -0.2872  -11.3807   11.5337 C   0  0  0  0  0  0  0  0  0  0  0  0
   -0.2713  -12.3360   12.4854 N   0  0  0  0  0  0  0  0  0  0  0  0
    1.6584  -11.3998   12.8371 C   0  0  0  0  0  0  0  0  0  0  0  0
    3.2374  -10.2883   13.9793 C   0  0  0  0  0  0  0  0  0  0  0  0
    2.8672   -8.6690   15.0345 C   0  0  0  0  0  0  0  0  0  0  0  0
    3.2811   -6.9720   15.5943 C   0  0  0  0  0  0  0  0  0  0  0  0
    4.0994   -6.2432   14.8126 C   0  0  0  0  0  0  0  0  0  0  0  0
    4.5880   -7.0962   13.6421 C   0  0  0  0  0  0  0  0  0  0  0  0
    4.6929   -6.2163   12.3696 C   0  0  0  0  0  0  0  0  0  0  0  0
    3.7888   -6.6700   11.4821 C   0  0  0  0  0  0  0  0  0  0  0  0
    3.4706   -7.9501   11.8491 N   0  0  0  0  0  0  0  0  0  0  0  0
    4.0878   -8.6831   13.3648 C   0  0  0  0  0  0  0  0  0  0  0  0
   -0.8821  -14.1363   11.6856 C   0  0  0  0  0  0  0  0  0  0  0  0
    0.0274  -14.8380   11.2342 O   0  0  0  0  0  0  0  0  0  0  0  0
   -2.8706  -15.0813   11.2463 C   0  0  0  0  0  0  0  0  0  0  0  0
   -4.8546  -15.1946   11.7643 C   0  0  0  0  0  0  0  0  0  0  0  0
   -5.6551  -17.0474   12.3452 C   0  0  0  0  0  0  0  0  0  0  0  0
   -4.5664  -18.8779   12.1715 C   0  0  0  0  0  0  0  0  0  0  0  0
   -3.2520  -18.4674   10.6171 C   0  0  0  0  0  0  0  0  0  0  0  0
   -3.3316  -18.9348    9.2123 N   0  0  0  0  0  0  0  0  0  0  0  0
   -2.7098  -18.1122    8.3894 C   0  0  0  0  0  0  0  0  0  0  0  0
   -1.9900  -18.5686    7.3444 N   0  0  0  0  0  0  0  0  0  0  0  0
   -2.4039  -16.8329    8.7961 O   0  0  0  0  0  0  0  0  0  0  0  0
   -2.9725  -16.5959   10.0482 C   0  0  0  0  0  0  0  0  0  0  0  0
   -0.3279  -12.1410   10.8245 H   0  0  0  0  0  0  0  0  0  0  0  0
   -1.1869  -10.8580   11.7018 H   0  0  0  0  0  0  0  0  0  0  0  0
    0.4942  -10.9305   10.9461 H   0  0  0  0  0  0  0  0  0  0  0  0
    2.2161  -11.4375   11.7964 H   0  0  0  0  0  0  0  0  0  0  0  0
    1.2642  -10.6223   12.2449 H   0  0  0  0  0  0  0  0  0  0  0  0
    2.7717   -8.5628   16.2597 H   0  0  0  0  0  0  0  0  0  0  0  0
    2.7728   -6.5888   16.4831 H   0  0  0  0  0  0  0  0  0  0  0  0
    4.1849   -5.1697   14.9168 H   0  0  0  0  0  0  0  0  0  0  0  0
    4.8332   -5.1423   12.3475 H   0  0  0  0  0  0  0  0  0  0  0  0
    3.2693   -6.1267   10.7238 H   0  0  0  0  0  0  0  0  0  0  0  0
    2.6612   -8.4826   11.6064 H   0  0  0  0  0  0  0  0  0  0  0  0
   -5.1174  -14.3993   12.4948 H   0  0  0  0  0  0  0  0  0  0  0  0
   -6.2079  -17.0884   13.3135 H   0  0  0  0  0  0  0  0  0  0  0  0
   -5.0234  -19.8792   12.2257 H   0  0  0  0  0  0  0  0  0  0  0  0
   -2.1483  -18.1821    6.4301 H   0  0  0  0  0  0  0  0  0  0  0  0
   -1.9939  -19.5852    7.3295 H   0  0  0  0  0  0  0  0  0  0  0  0
  1  2  1  0
  2  3  1  0
  3  4  1  0
  4  5  2  0
  5  6  1  0
  6  7  2  0
  7  8  1  0
  8  9  1  0
  9 10  2  0
 10 11  1  0
 11 12  1  0
  2 13  1  0
 13 14  2  0
 13 15  1  0
 15 16  2  0
 16 17  1  0
 17 18  2  0
 18 19  1  0
 19 20  1  0
 20 21  2  0
 21 22  1  0
 21 23  1  0
 23 24  1  0
 12  4  1  0
 24 15  1  0
 12  8  2  0
 24 19  2  0
  1 25  1  0
  1 26  1  0
  1 27  1  0
  3 28  1  0
  3 29  1  0
  5 30  1  0
  6 31  1  0
  7 32  1  0
  9 33  1  0
 10 34  1  0
 11 35  1  0
 16 36  1  0
 17 37  1  0
 18 38  1  0
 22 39  1  0
 22 40  1  0
M  END
>  <Energy>  (1008) 
2297.8561304438231

>  <compound_id>  (1008) 
76786

>  <target_id>  (1008) 
1

>  <reference_id>  (1008) 
97

>  <inspiration_ids>  (1008) 
[2, 97]

>  <energy_score>  (1008) 
2283.8503404683775

>  <distance_score>  (1008) 
9.741053685588863

>  <path>  (1008) 
/opt/xchem-fragalysis-2/maxwin/BulkDock/SCRATCH/511022/C76786-P97/C76786-P97.minimised.mol

>  <scratch_subdir>  (1008) 
/opt/xchem-fragalysis-2/maxwin/BulkDock/SCRATCH/511022/C76786-P97

>  <fragmenstein_runtime>  (1008) 
18.825154304504395

>  <fragmenstein_outcome>  (1008) 
too moved

>  <fragmenstein_mode>  (1008) 
expansion

>  <fragmenstein_error>  (1008) 


$$$$
C76787-P2
     RDKit          3D

 37 40  0  0  0  0  0  0  0  0999 V2000
   -6.4339  -17.8808   12.5921 N   0  0  0  0  0  0  0  0  0  0  0  0
   -5.9246  -16.6603   12.9926 C   0  0  0  0  0  0  0  0  0  0  0  0
   -5.9417  -16.0278   14.1032 N   0  0  0  0  0  0  0  0  0  0  0  0
   -5.4906  -14.7577   13.8207 C   0  0  0  0  0  0  0  0  0  0  0  0
   -5.2715  -14.0360   14.9742 C   0  0  0  0  0  0  0  0  0  0  0  0
   -4.0368  -14.4611   14.7845 C   0  0  0  0  0  0  0  0  0  0  0  0
   -3.6000  -14.0608   13.3163 C   0  0  0  0  0  0  0  0  0  0  0  0
   -2.7602  -14.5042   11.8199 C   0  0  0  0  0  0  0  0  0  0  0  0
   -0.7226  -13.7322   11.7601 C   0  0  0  0  0  0  0  0  0  0  0  0
    0.0480  -14.6218   11.4439 O   0  0  0  0  0  0  0  0  0  0  0  0
   -0.0377  -11.9380   12.1542 N   0  0  0  0  0  0  0  0  0  0  0  0
    1.8665  -11.0912   12.0281 C   0  0  0  0  0  0  0  0  0  0  0  0
    3.5713  -10.2597   13.0523 C   0  0  0  0  0  0  0  0  0  0  0  0
    4.5291  -10.8609   13.8284 C   0  0  0  0  0  0  0  0  0  0  0  0
    5.5570  -10.0424   14.0062 C   0  0  0  0  0  0  0  0  0  0  0  0
    6.0362   -8.2993   13.9045 C   0  0  0  0  0  0  0  0  0  0  0  0
    5.0914   -7.5478   13.3505 C   0  0  0  0  0  0  0  0  0  0  0  0
    4.5932   -6.3513   12.8132 C   0  0  0  0  0  0  0  0  0  0  0  0
    4.0892   -5.9210   14.0407 C   0  0  0  0  0  0  0  0  0  0  0  0
    3.7978   -7.2090   14.5130 N   0  0  0  0  0  0  0  0  0  0  0  0
    4.0490   -8.4345   13.3273 C   0  0  0  0  0  0  0  0  0  0  0  0
   -4.5036  -14.5688   12.4061 C   0  0  0  0  0  0  0  0  0  0  0  0
   -5.6778  -15.4955   11.7919 O   0  0  0  0  0  0  0  0  0  0  0  0
   -6.3096  -18.1819   11.6262 H   0  0  0  0  0  0  0  0  0  0  0  0
   -6.1248  -18.7019   13.0819 H   0  0  0  0  0  0  0  0  0  0  0  0
   -5.5596  -12.9906   14.9122 H   0  0  0  0  0  0  0  0  0  0  0  0
   -3.6350  -15.3748   15.2379 H   0  0  0  0  0  0  0  0  0  0  0  0
   -4.2163  -13.0181   13.2747 H   0  0  0  0  0  0  0  0  0  0  0  0
   -0.8167  -11.3177   12.3131 H   0  0  0  0  0  0  0  0  0  0  0  0
    2.3344  -11.6071   11.1765 H   0  0  0  0  0  0  0  0  0  0  0  0
    1.7608  -11.2836   13.0680 H   0  0  0  0  0  0  0  0  0  0  0  0
    4.7792  -11.8740   14.0865 H   0  0  0  0  0  0  0  0  0  0  0  0
    6.4601  -10.6172   14.0449 H   0  0  0  0  0  0  0  0  0  0  0  0
    6.9174   -7.9232   14.3139 H   0  0  0  0  0  0  0  0  0  0  0  0
    4.9416   -5.6919   12.0306 H   0  0  0  0  0  0  0  0  0  0  0  0
    3.7576   -4.9991   14.5043 H   0  0  0  0  0  0  0  0  0  0  0  0
    3.3177   -7.3991   15.3844 H   0  0  0  0  0  0  0  0  0  0  0  0
  1  2  1  0
  2  3  2  0
  3  4  1  0
  4  5  2  0
  5  6  1  0
  6  7  2  0
  7  8  1  0
  8  9  1  0
  9 10  2  0
  9 11  1  0
 11 12  1  0
 12 13  1  0
 13 14  2  0
 14 15  1  0
 15 16  2  0
 16 17  1  0
 17 18  1  0
 18 19  2  0
 19 20  1  0
 20 21  1  0
  8 22  2  0
 22 23  1  0
 23  2  1  0
 22  4  1  0
 21 13  1  0
 21 17  2  0
  1 24  1  0
  1 25  1  0
  5 26  1  0
  6 27  1  0
  7 28  1  0
 11 29  1  0
 12 30  1  0
 12 31  1  0
 14 32  1  0
 15 33  1  0
 16 34  1  0
 18 35  1  0
 19 36  1  0
 20 37  1  0
M  END
>  <Energy>  (1009) 
1399.5669197785228

>  <compound_id>  (1009) 
76787

>  <target_id>  (1009) 
1

>  <reference_id>  (1009) 
2

>  <inspiration_ids>  (1009) 
[2, 97]

>  <energy_score>  (1009) 
1384.1108347639688

>  <distance_score>  (1009) 
10.354960903937824

>  <path>  (1009) 
/opt/xchem-fragalysis-2/maxwin/BulkDock/SCRATCH/511022/C76787-P2/C76787-P2.minimised.mol

>  <scratch_subdir>  (1009) 
/opt/xchem-fragalysis-2/maxwin/BulkDock/SCRATCH/511022/C76787-P2

>  <fragmenstein_runtime>  (1009) 
16.898655652999878

>  <fragmenstein_outcome>  (1009) 
too moved

>  <fragmenstein_mode>  (1009) 
expansion

>  <fragmenstein_error>  (1009) 


$$$$
C76787-P97
     RDKit          3D

 37 40  0  0  0  0  0  0  0  0999 V2000
   -3.7195  -15.7704    8.0624 N   0  0  0  0  0  0  0  0  0  0  0  0
   -2.7217  -16.0306    8.9151 C   0  0  0  0  0  0  0  0  0  0  0  0
   -1.8114  -16.9303    8.7504 N   0  0  0  0  0  0  0  0  0  0  0  0
   -0.8498  -16.6097    9.7201 C   0  0  0  0  0  0  0  0  0  0  0  0
    0.4243  -17.1725    9.7941 C   0  0  0  0  0  0  0  0  0  0  0  0
    0.9463  -16.9911   11.0153 C   0  0  0  0  0  0  0  0  0  0  0  0
    0.4867  -15.8901   11.7512 C   0  0  0  0  0  0  0  0  0  0  0  0
   -0.4409  -14.8379   11.5079 C   0  0  0  0  0  0  0  0  0  0  0  0
    0.2813  -13.5054   12.1746 C   0  0  0  0  0  0  0  0  0  0  0  0
    0.6861  -13.7653   13.2638 O   0  0  0  0  0  0  0  0  0  0  0  0
    0.4371  -12.3170   11.3783 N   0  0  0  0  0  0  0  0  0  0  0  0
    1.3512  -10.9084   11.6307 C   0  0  0  0  0  0  0  0  0  0  0  0
    3.0037   -9.8881   11.5011 C   0  0  0  0  0  0  0  0  0  0  0  0
    3.8756  -10.1577   13.1040 C   0  0  0  0  0  0  0  0  0  0  0  0
    4.4673   -8.9024   13.7026 C   0  0  0  0  0  0  0  0  0  0  0  0
    4.6275   -7.4373   13.3298 C   0  0  0  0  0  0  0  0  0  0  0  0
    4.0186   -6.9316   12.0886 C   0  0  0  0  0  0  0  0  0  0  0  0
    3.9774   -5.6777   11.4408 C   0  0  0  0  0  0  0  0  0  0  0  0
    2.8748   -5.7544   10.6469 C   0  0  0  0  0  0  0  0  0  0  0  0
    2.2592   -6.9632   10.9033 N   0  0  0  0  0  0  0  0  0  0  0  0
    3.1962   -8.0116   11.4196 C   0  0  0  0  0  0  0  0  0  0  0  0
   -1.2419  -15.4370   10.5075 C   0  0  0  0  0  0  0  0  0  0  0  0
   -2.5259  -15.1791    9.9876 O   0  0  0  0  0  0  0  0  0  0  0  0
   -4.1531  -16.6378    7.7880 H   0  0  0  0  0  0  0  0  0  0  0  0
   -4.4456  -15.1400    8.3696 H   0  0  0  0  0  0  0  0  0  0  0  0
    0.7510  -17.9488    9.1132 H   0  0  0  0  0  0  0  0  0  0  0  0
    1.7418  -17.6294   11.3874 H   0  0  0  0  0  0  0  0  0  0  0  0
    0.9600  -15.7881   12.6937 H   0  0  0  0  0  0  0  0  0  0  0  0
   -0.0918  -12.4051   10.5803 H   0  0  0  0  0  0  0  0  0  0  0  0
    2.0882  -11.4862   11.0434 H   0  0  0  0  0  0  0  0  0  0  0  0
    1.5091  -11.2212   12.6337 H   0  0  0  0  0  0  0  0  0  0  0  0
    3.9864  -10.9585   13.8009 H   0  0  0  0  0  0  0  0  0  0  0  0
    5.2894   -9.3079   14.2446 H   0  0  0  0  0  0  0  0  0  0  0  0
    5.2826   -6.8700   13.9209 H   0  0  0  0  0  0  0  0  0  0  0  0
    4.5563   -4.7897   11.6438 H   0  0  0  0  0  0  0  0  0  0  0  0
    2.3871   -5.0189   10.0220 H   0  0  0  0  0  0  0  0  0  0  0  0
    1.3628   -7.2240   10.5272 H   0  0  0  0  0  0  0  0  0  0  0  0
  1  2  1  0
  2  3  2  0
  3  4  1  0
  4  5  2  0
  5  6  1  0
  6  7  2  0
  7  8  1  0
  8  9  1  0
  9 10  2  0
  9 11  1  0
 11 12  1  0
 12 13  1  0
 13 14  2  0
 14 15  1  0
 15 16  2  0
 16 17  1  0
 17 18  1  0
 18 19  2  0
 19 20  1  0
 20 21  1  0
  8 22  2  0
 22 23  1  0
 23  2  1  0
 22  4  1  0
 21 13  1  0
 21 17  2  0
  1 24  1  0
  1 25  1  0
  5 26  1  0
  6 27  1  0
  7 28  1  0
 11 29  1  0
 12 30  1  0
 12 31  1  0
 14 32  1  0
 15 33  1  0
 16 34  1  0
 18 35  1  0
 19 36  1  0
 20 37  1  0
M  END
>  <Energy>  (1010) 
394.28476436808108

>  <compound_id>  (1010) 
76787

>  <target_id>  (1010) 
1

>  <reference_id>  (1010) 
97

>  <inspiration_ids>  (1010) 
[2, 97]

>  <energy_score>  (1010) 
378.8286793535388

>  <distance_score>  (1010) 
10.936792837904132

>  <path>  (1010) 
/opt/xchem-fragalysis-2/maxwin/BulkDock/SCRATCH/511022/C76787-P97/C76787-P97.minimised.mol

>  <scratch_subdir>  (1010) 
/opt/xchem-fragalysis-2/maxwin/BulkDock/SCRATCH/511022/C76787-P97

>  <fragmenstein_runtime>  (1010) 
14.897663354873657

>  <fragmenstein_outcome>  (1010) 
too moved

>  <fragmenstein_mode>  (1010) 
expansion

>  <fragmenstein_error>  (1010) 


$$$$
C76788-P2
     RDKit          3D

 37 40  0  0  0  0  0  0  0  0999 V2000
    4.8786  -11.5640   14.0518 C   0  0  0  0  0  0  0  0  0  0  0  0
    5.1149  -11.2334   12.6909 N   0  0  0  0  0  0  0  0  0  0  0  0
    3.6117  -10.9817   11.4178 C   0  0  0  0  0  0  0  0  0  0  0  0
    2.9903   -9.9725   11.1271 O   0  0  0  0  0  0  0  0  0  0  0  0
    2.8442  -12.4402   10.5829 C   0  0  0  0  0  0  0  0  0  0  0  0
    3.3868  -13.5798    9.7586 C   0  0  0  0  0  0  0  0  0  0  0  0
    2.6042  -15.0933    9.5455 C   0  0  0  0  0  0  0  0  0  0  0  0
    1.2256  -15.3631   10.3409 C   0  0  0  0  0  0  0  0  0  0  0  0
    0.2502  -16.2474   10.0600 O   0  0  0  0  0  0  0  0  0  0  0  0
   -0.8965  -15.6012   10.4771 C   0  0  0  0  0  0  0  0  0  0  0  0
   -1.9897  -15.9337    9.7538 N   0  0  0  0  0  0  0  0  0  0  0  0
   -0.7492  -14.6270   11.3339 N   0  0  0  0  0  0  0  0  0  0  0  0
    0.5488  -14.2804   11.1543 C   0  0  0  0  0  0  0  0  0  0  0  0
    1.2324  -12.7984   11.1412 C   0  0  0  0  0  0  0  0  0  0  0  0
    6.0985  -10.0277   13.7257 C   0  0  0  0  0  0  0  0  0  0  0  0
    5.6233   -8.5625   13.9991 C   0  0  0  0  0  0  0  0  0  0  0  0
    6.6664   -7.7568   14.5696 C   0  0  0  0  0  0  0  0  0  0  0  0
    8.0896   -8.0670   14.3475 C   0  0  0  0  0  0  0  0  0  0  0  0
    8.0209   -7.8608   13.0367 C   0  0  0  0  0  0  0  0  0  0  0  0
    8.4291   -7.8845   11.6189 C   0  0  0  0  0  0  0  0  0  0  0  0
    7.5433   -7.0366   11.0625 C   0  0  0  0  0  0  0  0  0  0  0  0
    6.7495   -7.4144   12.1052 N   0  0  0  0  0  0  0  0  0  0  0  0
    7.3193   -8.9458   12.8574 C   0  0  0  0  0  0  0  0  0  0  0  0
    4.5091  -12.4626   14.4053 H   0  0  0  0  0  0  0  0  0  0  0  0
    4.3501  -10.8496   14.6584 H   0  0  0  0  0  0  0  0  0  0  0  0
    5.7884  -12.1146   14.0613 H   0  0  0  0  0  0  0  0  0  0  0  0
    4.4376  -13.5624    9.5197 H   0  0  0  0  0  0  0  0  0  0  0  0
    3.0526  -15.9095    8.9890 H   0  0  0  0  0  0  0  0  0  0  0  0
   -1.9549  -16.5140    8.9212 H   0  0  0  0  0  0  0  0  0  0  0  0
   -2.6898  -15.2084    9.6782 H   0  0  0  0  0  0  0  0  0  0  0  0
    0.6383  -11.9939   11.5973 H   0  0  0  0  0  0  0  0  0  0  0  0
    4.6002   -8.2569   13.7597 H   0  0  0  0  0  0  0  0  0  0  0  0
    6.3954   -6.8483   15.1501 H   0  0  0  0  0  0  0  0  0  0  0  0
    8.5838   -8.9829   14.7110 H   0  0  0  0  0  0  0  0  0  0  0  0
    9.1213   -8.4304   10.9723 H   0  0  0  0  0  0  0  0  0  0  0  0
    7.2746   -6.5998   10.1048 H   0  0  0  0  0  0  0  0  0  0  0  0
    5.8525   -7.0197   12.3636 H   0  0  0  0  0  0  0  0  0  0  0  0
  1  2  1  0
  2  3  1  0
  3  4  2  0
  3  5  1  0
  5  6  2  0
  6  7  1  0
  7  8  2  0
  8  9  1  0
  9 10  1  0
 10 11  1  0
 10 12  2  0
 12 13  1  0
 13 14  2  0
  2 15  1  0
 15 16  2  0
 16 17  1  0
 17 18  2  0
 18 19  1  0
 19 20  1  0
 20 21  2  0
 21 22  1  0
 22 23  1  0
 14  5  1  0
 23 15  1  0
 13  8  1  0
 23 19  2  0
  1 24  1  0
  1 25  1  0
  1 26  1  0
  6 27  1  0
  7 28  1  0
 11 29  1  0
 11 30  1  0
 14 31  1  0
 16 32  1  0
 17 33  1  0
 18 34  1  0
 20 35  1  0
 21 36  1  0
 22 37  1  0
M  END
>  <Energy>  (1011) 
826.39788240566747

>  <compound_id>  (1011) 
76788

>  <target_id>  (1011) 
1

>  <reference_id>  (1011) 
2

>  <inspiration_ids>  (1011) 
[2, 97]

>  <energy_score>  (1011) 
767.8800095983206

>  <distance_score>  (1011) 
10.997471940730254

>  <path>  (1011) 
/opt/xchem-fragalysis-2/maxwin/BulkDock/SCRATCH/511022/C76788-P2/C76788-P2.minimised.mol

>  <scratch_subdir>  (1011) 
/opt/xchem-fragalysis-2/maxwin/BulkDock/SCRATCH/511022/C76788-P2

>  <fragmenstein_runtime>  (1011) 
12.044377326965332

>  <fragmenstein_outcome>  (1011) 
too moved

>  <fragmenstein_mode>  (1011) 
expansion

>  <fragmenstein_error>  (1011) 


$$$$
C76788-P97
     RDKit          3D

 37 40  0  0  0  0  0  0  0  0999 V2000
    4.0541  -10.0088   13.0897 C   0  0  0  0  0  0  0  0  0  0  0  0
    3.0074   -9.8819   11.3524 N   0  0  0  0  0  0  0  0  0  0  0  0
    3.5832  -11.0001   10.1699 C   0  0  0  0  0  0  0  0  0  0  0  0
    4.4171  -10.7156    9.3649 O   0  0  0  0  0  0  0  0  0  0  0  0
    3.2157  -12.7641   10.0468 C   0  0  0  0  0  0  0  0  0  0  0  0
    2.5917  -13.4024    9.0749 C   0  0  0  0  0  0  0  0  0  0  0  0
    2.1018  -15.0123    8.5838 C   0  0  0  0  0  0  0  0  0  0  0  0
    2.8187  -16.0093    9.0401 C   0  0  0  0  0  0  0  0  0  0  0  0
    2.7603  -17.3151    8.8135 O   0  0  0  0  0  0  0  0  0  0  0  0
    3.9827  -17.7024    9.2474 C   0  0  0  0  0  0  0  0  0  0  0  0
    4.1709  -19.0216    9.1742 N   0  0  0  0  0  0  0  0  0  0  0  0
    4.7872  -16.7105    9.6329 N   0  0  0  0  0  0  0  0  0  0  0  0
    4.0045  -15.5516    9.5340 C   0  0  0  0  0  0  0  0  0  0  0  0
    4.1362  -13.9252   10.0096 C   0  0  0  0  0  0  0  0  0  0  0  0
    3.4070   -7.9696   11.5696 C   0  0  0  0  0  0  0  0  0  0  0  0
    4.2200   -6.8761   12.4929 C   0  0  0  0  0  0  0  0  0  0  0  0
    4.0148   -5.4454   12.5153 C   0  0  0  0  0  0  0  0  0  0  0  0
    3.6272   -4.7867   11.3991 C   0  0  0  0  0  0  0  0  0  0  0  0
    4.0043   -5.5610   10.3284 C   0  0  0  0  0  0  0  0  0  0  0  0
    4.5982   -5.1018    9.1177 C   0  0  0  0  0  0  0  0  0  0  0  0
    5.1631   -6.1922    8.5415 C   0  0  0  0  0  0  0  0  0  0  0  0
    4.8334   -7.2690    9.3154 N   0  0  0  0  0  0  0  0  0  0  0  0
    3.9574   -6.9980   10.4035 C   0  0  0  0  0  0  0  0  0  0  0  0
    4.2779   -9.0686   13.5922 H   0  0  0  0  0  0  0  0  0  0  0  0
    4.8743  -10.7729   13.0727 H   0  0  0  0  0  0  0  0  0  0  0  0
    3.4676  -10.5896   13.8030 H   0  0  0  0  0  0  0  0  0  0  0  0
    2.2929  -12.6359    8.3475 H   0  0  0  0  0  0  0  0  0  0  0  0
    1.4833  -15.1334    7.6888 H   0  0  0  0  0  0  0  0  0  0  0  0
    5.1312  -19.3421    9.1620 H   0  0  0  0  0  0  0  0  0  0  0  0
    3.5505  -19.5409    8.5658 H   0  0  0  0  0  0  0  0  0  0  0  0
    5.1013  -13.8983   10.4865 H   0  0  0  0  0  0  0  0  0  0  0  0
    4.6796   -7.2416   13.4204 H   0  0  0  0  0  0  0  0  0  0  0  0
    4.0509   -4.8876   13.4451 H   0  0  0  0  0  0  0  0  0  0  0  0
    3.5312   -3.7089   11.3738 H   0  0  0  0  0  0  0  0  0  0  0  0
    4.7234   -4.0759    8.7976 H   0  0  0  0  0  0  0  0  0  0  0  0
    5.7744   -6.3117    7.6575 H   0  0  0  0  0  0  0  0  0  0  0  0
    5.0941   -8.1939    9.0420 H   0  0  0  0  0  0  0  0  0  0  0  0
  1  2  1  0
  2  3  1  0
  3  4  2  0
  3  5  1  0
  5  6  2  0
  6  7  1  0
  7  8  2  0
  8  9  1  0
  9 10  1  0
 10 11  1  0
 10 12  2  0
 12 13  1  0
 13 14  2  0
  2 15  1  0
 15 16  2  0
 16 17  1  0
 17 18  2  0
 18 19  1  0
 19 20  1  0
 20 21  2  0
 21 22  1  0
 22 23  1  0
 14  5  1  0
 23 15  1  0
 13  8  1  0
 23 19  2  0
  1 24  1  0
  1 25  1  0
  1 26  1  0
  6 27  1  0
  7 28  1  0
 11 29  1  0
 11 30  1  0
 14 31  1  0
 16 32  1  0
 17 33  1  0
 18 34  1  0
 20 35  1  0
 21 36  1  0
 22 37  1  0
M  END
>  <Energy>  (1012) 
511.15917962257265

>  <compound_id>  (1012) 
76788

>  <target_id>  (1012) 
1

>  <reference_id>  (1012) 
97

>  <inspiration_ids>  (1012) 
[2, 97]

>  <energy_score>  (1012) 
452.64130681523017

>  <distance_score>  (1012) 
12.68030461871838

>  <path>  (1012) 
/opt/xchem-fragalysis-2/maxwin/BulkDock/SCRATCH/511022/C76788-P97/C76788-P97.minimised.mol

>  <scratch_subdir>  (1012) 
/opt/xchem-fragalysis-2/maxwin/BulkDock/SCRATCH/511022/C76788-P97

>  <fragmenstein_runtime>  (1012) 
14.336134910583496

>  <fragmenstein_outcome>  (1012) 
too moved

>  <fragmenstein_mode>  (1012) 
expansion

>  <fragmenstein_error>  (1012) 


$$$$
C76790-P2
     RDKit          3D

 36 39  0  0  0  0  0  0  0  0999 V2000
   -6.3538  -11.7676    9.9174 F   0  0  0  0  0  0  0  0  0  0  0  0
   -5.9587  -11.8134    8.6396 C   0  0  0  0  0  0  0  0  0  0  0  0
   -5.9811  -13.0123    7.9359 C   0  0  0  0  0  0  0  0  0  0  0  0
   -5.5670  -13.0545    6.5994 C   0  0  0  0  0  0  0  0  0  0  0  0
   -5.1185  -11.9025    5.9353 C   0  0  0  0  0  0  0  0  0  0  0  0
   -5.0751  -10.6942    6.6465 C   0  0  0  0  0  0  0  0  0  0  0  0
   -4.6479   -9.4256    6.2833 N   0  0  0  0  0  0  0  0  0  0  0  0
   -4.8216   -8.6921    7.3671 C   0  0  0  0  0  0  0  0  0  0  0  0
   -4.6006   -7.3654    7.6601 N   0  0  0  0  0  0  0  0  0  0  0  0
   -3.4737   -6.5446    7.0669 C   0  0  0  0  0  0  0  0  0  0  0  0
   -3.1771   -5.0924    7.7988 C   0  0  0  0  0  0  0  0  0  0  0  0
   -1.7582   -4.3666    7.7700 C   0  0  0  0  0  0  0  0  0  0  0  0
   -0.9637   -4.4460    6.6125 C   0  0  0  0  0  0  0  0  0  0  0  0
    0.3239   -3.8912    6.4898 C   0  0  0  0  0  0  0  0  0  0  0  0
    0.8839   -3.1125    7.4939 C   0  0  0  0  0  0  0  0  0  0  0  0
    0.0649   -2.7947    8.5799 C   0  0  0  0  0  0  0  0  0  0  0  0
    0.2512   -1.8769    9.6579 C   0  0  0  0  0  0  0  0  0  0  0  0
   -0.8902   -1.9229   10.4165 C   0  0  0  0  0  0  0  0  0  0  0  0
   -1.7391   -2.8544    9.8577 N   0  0  0  0  0  0  0  0  0  0  0  0
   -1.2054   -3.4149    8.7059 C   0  0  0  0  0  0  0  0  0  0  0  0
   -5.3614   -9.4115    8.4217 O   0  0  0  0  0  0  0  0  0  0  0  0
   -5.4984  -10.6900    7.9619 C   0  0  0  0  0  0  0  0  0  0  0  0
   -6.3090  -13.9098    8.4467 H   0  0  0  0  0  0  0  0  0  0  0  0
   -5.5689  -13.9901    6.0503 H   0  0  0  0  0  0  0  0  0  0  0  0
   -4.7860  -11.9401    4.9031 H   0  0  0  0  0  0  0  0  0  0  0  0
   -4.5662   -7.2965    8.6767 H   0  0  0  0  0  0  0  0  0  0  0  0
   -3.6814   -6.3610    6.0071 H   0  0  0  0  0  0  0  0  0  0  0  0
   -2.5729   -7.1421    7.1349 H   0  0  0  0  0  0  0  0  0  0  0  0
   -3.8824   -4.3793    7.3510 H   0  0  0  0  0  0  0  0  0  0  0  0
   -3.4680   -5.1653    8.8516 H   0  0  0  0  0  0  0  0  0  0  0  0
   -1.3945   -4.9148    5.7274 H   0  0  0  0  0  0  0  0  0  0  0  0
    0.8687   -4.0187    5.5565 H   0  0  0  0  0  0  0  0  0  0  0  0
    1.8638   -2.6626    7.3712 H   0  0  0  0  0  0  0  0  0  0  0  0
    1.1135   -1.2474    9.8328 H   0  0  0  0  0  0  0  0  0  0  0  0
   -1.1799   -1.3849   11.3089 H   0  0  0  0  0  0  0  0  0  0  0  0
   -2.6589   -3.0722   10.2129 H   0  0  0  0  0  0  0  0  0  0  0  0
  1  2  1  0
  2  3  2  0
  3  4  1  0
  4  5  2  0
  5  6  1  0
  6  7  1  0
  7  8  2  0
  8  9  1  0
  9 10  1  0
 10 11  1  0
 11 12  1  0
 12 13  2  0
 13 14  1  0
 14 15  2  0
 15 16  1  0
 16 17  1  0
 17 18  2  0
 18 19  1  0
 19 20  1  0
  8 21  1  0
 21 22  1  0
 22  2  1  0
 22  6  2  0
 20 12  1  0
 20 16  2  0
  3 23  1  0
  4 24  1  0
  5 25  1  0
  9 26  1  0
 10 27  1  0
 10 28  1  0
 11 29  1  0
 11 30  1  0
 13 31  1  0
 14 32  1  0
 15 33  1  0
 17 34  1  0
 18 35  1  0
 19 36  1  0
M  END
>  <Energy>  (1013) 
20.426255232516286

>  <compound_id>  (1013) 
76790

>  <target_id>  (1013) 
1

>  <reference_id>  (1013) 
2

>  <inspiration_ids>  (1013) 
[2, 97]

>  <energy_score>  (1013) 
0.5898646323083554

>  <distance_score>  (1013) 
14.195046097806113

>  <path>  (1013) 
/opt/xchem-fragalysis-2/maxwin/BulkDock/SCRATCH/511022/C76790-P2/C76790-P2.minimised.mol

>  <scratch_subdir>  (1013) 
/opt/xchem-fragalysis-2/maxwin/BulkDock/SCRATCH/511022/C76790-P2

>  <fragmenstein_runtime>  (1013) 
12.08354377746582

>  <fragmenstein_outcome>  (1013) 
too moved

>  <fragmenstein_mode>  (1013) 
expansion

>  <fragmenstein_error>  (1013) 


$$$$
C76790-P97
     RDKit          3D

 36 39  0  0  0  0  0  0  0  0999 V2000
   -4.1068  -11.7333   14.0971 F   0  0  0  0  0  0  0  0  0  0  0  0
   -3.9542  -13.0311   14.3889 C   0  0  0  0  0  0  0  0  0  0  0  0
   -5.0243  -13.9097   14.2620 C   0  0  0  0  0  0  0  0  0  0  0  0
   -4.8763  -15.2498   14.6071 C   0  0  0  0  0  0  0  0  0  0  0  0
   -3.6439  -15.7506   15.0719 C   0  0  0  0  0  0  0  0  0  0  0  0
   -2.5722  -14.8596   15.2220 C   0  0  0  0  0  0  0  0  0  0  0  0
   -1.3055  -15.0226   15.7317 N   0  0  0  0  0  0  0  0  0  0  0  0
   -0.8132  -13.7962   15.7960 C   0  0  0  0  0  0  0  0  0  0  0  0
    0.3059  -13.4013   16.4668 N   0  0  0  0  0  0  0  0  0  0  0  0
    0.9106  -12.0364   16.4857 C   0  0  0  0  0  0  0  0  0  0  0  0
    1.5773  -11.5299   17.8347 C   0  0  0  0  0  0  0  0  0  0  0  0
    2.9906  -10.8087   17.9687 C   0  0  0  0  0  0  0  0  0  0  0  0
    3.9708  -11.5176   18.7206 C   0  0  0  0  0  0  0  0  0  0  0  0
    5.1869  -10.9707   19.1573 C   0  0  0  0  0  0  0  0  0  0  0  0
    5.5410   -9.6685   18.8338 C   0  0  0  0  0  0  0  0  0  0  0  0
    4.6497   -8.9049   18.0656 C   0  0  0  0  0  0  0  0  0  0  0  0
    4.7256   -7.5566   17.6069 C   0  0  0  0  0  0  0  0  0  0  0  0
    3.5300   -7.2742   17.0065 C   0  0  0  0  0  0  0  0  0  0  0  0
    2.7415   -8.3981   17.0918 N   0  0  0  0  0  0  0  0  0  0  0  0
    3.4050   -9.4599   17.6774 C   0  0  0  0  0  0  0  0  0  0  0  0
   -1.6174  -12.8528   15.2080 O   0  0  0  0  0  0  0  0  0  0  0  0
   -2.7611  -13.5347   14.8856 C   0  0  0  0  0  0  0  0  0  0  0  0
   -5.9792  -13.5219   13.9247 H   0  0  0  0  0  0  0  0  0  0  0  0
   -5.7321  -15.9078   14.5026 H   0  0  0  0  0  0  0  0  0  0  0  0
   -3.5138  -16.7902   15.3493 H   0  0  0  0  0  0  0  0  0  0  0  0
    0.9022  -14.1523   16.7968 H   0  0  0  0  0  0  0  0  0  0  0  0
    1.6617  -11.9968   15.7047 H   0  0  0  0  0  0  0  0  0  0  0  0
    0.1113  -11.3253   16.2613 H   0  0  0  0  0  0  0  0  0  0  0  0
    0.8692  -10.8251   18.2932 H   0  0  0  0  0  0  0  0  0  0  0  0
    1.5903  -12.3882   18.5201 H   0  0  0  0  0  0  0  0  0  0  0  0
    3.7522  -12.5397   19.0361 H   0  0  0  0  0  0  0  0  0  0  0  0
    5.8578  -11.5727   19.7670 H   0  0  0  0  0  0  0  0  0  0  0  0
    6.4732   -9.2489   19.2011 H   0  0  0  0  0  0  0  0  0  0  0  0
    5.5451   -6.8657   17.7494 H   0  0  0  0  0  0  0  0  0  0  0  0
    3.1538   -6.3647   16.5591 H   0  0  0  0  0  0  0  0  0  0  0  0
    1.7799   -8.4379   16.7945 H   0  0  0  0  0  0  0  0  0  0  0  0
  1  2  1  0
  2  3  2  0
  3  4  1  0
  4  5  2  0
  5  6  1  0
  6  7  1  0
  7  8  2  0
  8  9  1  0
  9 10  1  0
 10 11  1  0
 11 12  1  0
 12 13  2  0
 13 14  1  0
 14 15  2  0
 15 16  1  0
 16 17  1  0
 17 18  2  0
 18 19  1  0
 19 20  1  0
  8 21  1  0
 21 22  1  0
 22  2  1  0
 22  6  2  0
 20 12  1  0
 20 16  2  0
  3 23  1  0
  4 24  1  0
  5 25  1  0
  9 26  1  0
 10 27  1  0
 10 28  1  0
 11 29  1  0
 11 30  1  0
 13 31  1  0
 14 32  1  0
 15 33  1  0
 17 34  1  0
 18 35  1  0
 19 36  1  0
M  END
>  <Energy>  (1014) 
21.504031245971085

>  <compound_id>  (1014) 
76790

>  <target_id>  (1014) 
1

>  <reference_id>  (1014) 
97

>  <inspiration_ids>  (1014) 
[2, 97]

>  <energy_score>  (1014) 
1.6676406457680448

>  <distance_score>  (1014) 
12.383941175450309

>  <path>  (1014) 
/opt/xchem-fragalysis-2/maxwin/BulkDock/SCRATCH/511022/C76790-P97/C76790-P97.minimised.mol

>  <scratch_subdir>  (1014) 
/opt/xchem-fragalysis-2/maxwin/BulkDock/SCRATCH/511022/C76790-P97

>  <fragmenstein_runtime>  (1014) 
12.284732580184937

>  <fragmenstein_outcome>  (1014) 
too moved

>  <fragmenstein_mode>  (1014) 
expansion

>  <fragmenstein_error>  (1014) 


$$$$
C76791-P2
     RDKit          3D

 34 37  0  0  0  0  0  0  0  0999 V2000
   -2.0862   -9.0506   16.6451 O   0  0  0  0  0  0  0  0  0  0  0  0
   -2.0421   -8.0865   15.8924 C   0  0  0  0  0  0  0  0  0  0  0  0
   -2.8905   -8.0032   14.8239 O   0  0  0  0  0  0  0  0  0  0  0  0
   -3.1517   -9.2380   14.0299 C   0  0  0  0  0  0  0  0  0  0  0  0
   -4.1063  -10.3552   14.4790 C   0  0  0  0  0  0  0  0  0  0  0  0
   -3.7512  -11.6052   14.7665 N   0  0  0  0  0  0  0  0  0  0  0  0
   -4.9163  -12.3327   14.8165 C   0  0  0  0  0  0  0  0  0  0  0  0
   -5.1482  -13.6811   15.1403 C   0  0  0  0  0  0  0  0  0  0  0  0
   -6.4725  -14.1315   15.2153 C   0  0  0  0  0  0  0  0  0  0  0  0
   -7.5329  -13.2672   14.9190 C   0  0  0  0  0  0  0  0  0  0  0  0
   -7.3000  -11.9488   14.4973 C   0  0  0  0  0  0  0  0  0  0  0  0
   -8.6011  -10.9126   14.0865 Cl  0  0  0  0  0  0  0  0  0  0  0  0
   -5.9777  -11.5116   14.4860 C   0  0  0  0  0  0  0  0  0  0  0  0
   -5.4630  -10.2574   14.2017 O   0  0  0  0  0  0  0  0  0  0  0  0
   -0.9476   -6.9866   16.0753 C   0  0  0  0  0  0  0  0  0  0  0  0
   -0.0379   -7.1442   17.1497 C   0  0  0  0  0  0  0  0  0  0  0  0
    1.1071   -6.3247   17.3452 C   0  0  0  0  0  0  0  0  0  0  0  0
    1.3879   -5.2930   16.4329 C   0  0  0  0  0  0  0  0  0  0  0  0
    2.4579   -4.3605   16.2802 C   0  0  0  0  0  0  0  0  0  0  0  0
    2.2009   -3.6202   15.1506 C   0  0  0  0  0  0  0  0  0  0  0  0
    1.0021   -4.0504   14.6327 N   0  0  0  0  0  0  0  0  0  0  0  0
    0.4791   -5.0893   15.3887 C   0  0  0  0  0  0  0  0  0  0  0  0
   -0.6925   -5.9079   15.1988 C   0  0  0  0  0  0  0  0  0  0  0  0
   -3.4979   -8.8814   13.0541 H   0  0  0  0  0  0  0  0  0  0  0  0
   -2.1803   -9.7166   13.8801 H   0  0  0  0  0  0  0  0  0  0  0  0
   -4.3168  -14.3352   15.3849 H   0  0  0  0  0  0  0  0  0  0  0  0
   -6.6767  -15.1577   15.5114 H   0  0  0  0  0  0  0  0  0  0  0  0
   -8.5556  -13.6323   14.9953 H   0  0  0  0  0  0  0  0  0  0  0  0
   -0.2020   -7.9499   17.8667 H   0  0  0  0  0  0  0  0  0  0  0  0
    1.7745   -6.5212   18.1803 H   0  0  0  0  0  0  0  0  0  0  0  0
    3.3240   -4.2629   16.9204 H   0  0  0  0  0  0  0  0  0  0  0  0
    2.7565   -2.8243   14.6725 H   0  0  0  0  0  0  0  0  0  0  0  0
    0.5692   -3.6802   13.7974 H   0  0  0  0  0  0  0  0  0  0  0  0
   -1.3404   -5.7342   14.3434 H   0  0  0  0  0  0  0  0  0  0  0  0
  1  2  2  0
  2  3  1  0
  3  4  1  0
  4  5  1  0
  5  6  2  0
  6  7  1  0
  7  8  2  0
  8  9  1  0
  9 10  2  0
 10 11  1  0
 11 12  1  0
 11 13  2  0
 13 14  1  0
  2 15  1  0
 15 16  2  0
 16 17  1  0
 17 18  2  0
 18 19  1  0
 19 20  2  0
 20 21  1  0
 21 22  1  0
 22 23  2  0
 14  5  1  0
 23 15  1  0
 13  7  1  0
 22 18  1  0
  4 24  1  0
  4 25  1  0
  8 26  1  0
  9 27  1  0
 10 28  1  0
 16 29  1  0
 17 30  1  0
 19 31  1  0
 20 32  1  0
 21 33  1  0
 23 34  1  0
M  END
>  <Energy>  (1015) 
88.20486227339687

>  <compound_id>  (1015) 
76791

>  <target_id>  (1015) 
1

>  <reference_id>  (1015) 
2

>  <inspiration_ids>  (1015) 
[2, 97]

>  <energy_score>  (1015) 
-0.027802625965549055

>  <distance_score>  (1015) 
13.008265488746758

>  <path>  (1015) 
/opt/xchem-fragalysis-2/maxwin/BulkDock/SCRATCH/511022/C76791-P2/C76791-P2.minimised.mol

>  <scratch_subdir>  (1015) 
/opt/xchem-fragalysis-2/maxwin/BulkDock/SCRATCH/511022/C76791-P2

>  <fragmenstein_runtime>  (1015) 
11.473702907562256

>  <fragmenstein_outcome>  (1015) 
too moved

>  <fragmenstein_mode>  (1015) 
expansion

>  <fragmenstein_error>  (1015) 


$$$$
C76791-P97
     RDKit          3D

 34 37  0  0  0  0  0  0  0  0999 V2000
    4.6942  -13.6634   10.7746 O   0  0  0  0  0  0  0  0  0  0  0  0
    3.8462  -12.8242   10.4644 C   0  0  0  0  0  0  0  0  0  0  0  0
    2.8405  -13.4215    9.7342 O   0  0  0  0  0  0  0  0  0  0  0  0
    2.7870  -15.1402    9.3577 C   0  0  0  0  0  0  0  0  0  0  0  0
    1.7791  -16.2271    9.9424 C   0  0  0  0  0  0  0  0  0  0  0  0
    0.7667  -16.1366   10.7964 N   0  0  0  0  0  0  0  0  0  0  0  0
    0.3515  -17.4305   10.9818 C   0  0  0  0  0  0  0  0  0  0  0  0
   -0.5244  -17.9789   11.9230 C   0  0  0  0  0  0  0  0  0  0  0  0
   -0.6922  -19.3677   11.9549 C   0  0  0  0  0  0  0  0  0  0  0  0
   -0.0022  -20.1850   11.0539 C   0  0  0  0  0  0  0  0  0  0  0  0
    0.8346  -19.6452   10.0720 C   0  0  0  0  0  0  0  0  0  0  0  0
    1.6865  -20.6497    8.9769 Cl  0  0  0  0  0  0  0  0  0  0  0  0
    1.0106  -18.2669   10.1015 C   0  0  0  0  0  0  0  0  0  0  0  0
    1.8925  -17.4935    9.3854 O   0  0  0  0  0  0  0  0  0  0  0  0
    4.2417  -10.9954   10.9325 C   0  0  0  0  0  0  0  0  0  0  0  0
    4.9021  -10.6169    9.1675 C   0  0  0  0  0  0  0  0  0  0  0  0
    6.7242  -10.1175    8.7079 C   0  0  0  0  0  0  0  0  0  0  0  0
    8.0851   -9.4276    9.9220 C   0  0  0  0  0  0  0  0  0  0  0  0
    9.2015   -8.9441    9.3144 C   0  0  0  0  0  0  0  0  0  0  0  0
    9.4631   -8.1654   10.3250 C   0  0  0  0  0  0  0  0  0  0  0  0
    8.3168   -7.9092   11.2673 N   0  0  0  0  0  0  0  0  0  0  0  0
    7.4160   -9.3163   11.8931 C   0  0  0  0  0  0  0  0  0  0  0  0
    5.8390  -10.7238   12.1575 C   0  0  0  0  0  0  0  0  0  0  0  0
    3.8150  -15.4882    9.2804 H   0  0  0  0  0  0  0  0  0  0  0  0
    2.2331  -15.1309    8.4187 H   0  0  0  0  0  0  0  0  0  0  0  0
   -0.9837  -17.3375   12.6649 H   0  0  0  0  0  0  0  0  0  0  0  0
   -1.3364  -19.8189   12.7080 H   0  0  0  0  0  0  0  0  0  0  0  0
   -0.1013  -21.2646   11.1392 H   0  0  0  0  0  0  0  0  0  0  0  0
    4.3159  -11.3369    8.6122 H   0  0  0  0  0  0  0  0  0  0  0  0
    7.0530  -10.0946    7.6706 H   0  0  0  0  0  0  0  0  0  0  0  0
    9.6643   -9.1028    8.3545 H   0  0  0  0  0  0  0  0  0  0  0  0
   10.4313   -7.6815   10.3174 H   0  0  0  0  0  0  0  0  0  0  0  0
    8.2846   -7.2697   12.0228 H   0  0  0  0  0  0  0  0  0  0  0  0
    5.6075  -10.9838   13.2516 H   0  0  0  0  0  0  0  0  0  0  0  0
  1  2  2  0
  2  3  1  0
  3  4  1  0
  4  5  1  0
  5  6  2  0
  6  7  1  0
  7  8  2  0
  8  9  1  0
  9 10  2  0
 10 11  1  0
 11 12  1  0
 11 13  2  0
 13 14  1  0
  2 15  1  0
 15 16  2  0
 16 17  1  0
 17 18  2  0
 18 19  1  0
 19 20  2  0
 20 21  1  0
 21 22  1  0
 22 23  2  0
 14  5  1  0
 23 15  1  0
 13  7  1  0
 22 18  1  0
  4 24  1  0
  4 25  1  0
  8 26  1  0
  9 27  1  0
 10 28  1  0
 16 29  1  0
 17 30  1  0
 19 31  1  0
 20 32  1  0
 21 33  1  0
 23 34  1  0
M  END
>  <Energy>  (1016) 
1099.0457278547808

>  <compound_id>  (1016) 
76791

>  <target_id>  (1016) 
1

>  <reference_id>  (1016) 
97

>  <inspiration_ids>  (1016) 
[2, 97]

>  <energy_score>  (1016) 
1010.813062955418

>  <distance_score>  (1016) 
11.461937065457112

>  <path>  (1016) 
/opt/xchem-fragalysis-2/maxwin/BulkDock/SCRATCH/511022/C76791-P97/C76791-P97.minimised.mol

>  <scratch_subdir>  (1016) 
/opt/xchem-fragalysis-2/maxwin/BulkDock/SCRATCH/511022/C76791-P97

>  <fragmenstein_runtime>  (1016) 
12.115595817565918

>  <fragmenstein_outcome>  (1016) 
too moved

>  <fragmenstein_mode>  (1016) 
expansion

>  <fragmenstein_error>  (1016) 


$$$$
C76793-P2
     RDKit          3D

 46 49  0  0  0  0  0  0  0  0999 V2000
    3.9439  -16.4198    8.4120 C   0  0  0  0  0  0  0  0  0  0  0  0
    2.9659  -15.3397    8.7342 N   0  0  0  0  0  0  0  0  0  0  0  0
    3.7447  -13.8695    9.3370 C   0  0  0  0  0  0  0  0  0  0  0  0
    3.4542  -12.1107    9.0075 C   0  0  0  0  0  0  0  0  0  0  0  0
    4.1352  -10.7649    9.0789 N   0  0  0  0  0  0  0  0  0  0  0  0
    3.9744   -9.6048   10.0793 C   0  0  0  0  0  0  0  0  0  0  0  0
    3.1858   -9.5209   10.9805 O   0  0  0  0  0  0  0  0  0  0  0  0
    5.0517   -7.9127    9.8659 C   0  0  0  0  0  0  0  0  0  0  0  0
    4.7634   -6.7773   10.6878 C   0  0  0  0  0  0  0  0  0  0  0  0
    3.9427   -6.6454   11.8773 C   0  0  0  0  0  0  0  0  0  0  0  0
    4.3395   -7.5018   12.8989 C   0  0  0  0  0  0  0  0  0  0  0  0
    5.7770   -7.4556   12.7122 C   0  0  0  0  0  0  0  0  0  0  0  0
    6.6831   -7.9627   13.4795 C   0  0  0  0  0  0  0  0  0  0  0  0
    7.6229   -7.5569   12.6219 C   0  0  0  0  0  0  0  0  0  0  0  0
    7.7399   -7.4181   11.3526 N   0  0  0  0  0  0  0  0  0  0  0  0
    6.2723   -7.4719   10.8925 C   0  0  0  0  0  0  0  0  0  0  0  0
    1.9234  -16.1189    9.6129 C   0  0  0  0  0  0  0  0  0  0  0  0
    0.8925  -17.1003    9.0085 C   0  0  0  0  0  0  0  0  0  0  0  0
    0.6393  -17.5145    7.7761 N   0  0  0  0  0  0  0  0  0  0  0  0
   -0.3454  -18.4790    7.9382 C   0  0  0  0  0  0  0  0  0  0  0  0
   -0.9594  -19.3461    7.0233 C   0  0  0  0  0  0  0  0  0  0  0  0
   -1.8343  -20.3246    7.5230 C   0  0  0  0  0  0  0  0  0  0  0  0
   -2.1502  -20.3857    8.8833 C   0  0  0  0  0  0  0  0  0  0  0  0
   -1.6104  -19.4811    9.7983 C   0  0  0  0  0  0  0  0  0  0  0  0
   -0.6950  -18.5778    9.2730 C   0  0  0  0  0  0  0  0  0  0  0  0
    0.0600  -17.6736    9.9573 O   0  0  0  0  0  0  0  0  0  0  0  0
    4.3886  -16.2808    7.4219 H   0  0  0  0  0  0  0  0  0  0  0  0
    3.4677  -17.4039    8.3209 H   0  0  0  0  0  0  0  0  0  0  0  0
    4.7134  -16.5067    9.1861 H   0  0  0  0  0  0  0  0  0  0  0  0
    2.9861  -13.7105    9.9869 H   0  0  0  0  0  0  0  0  0  0  0  0
    4.6705  -14.0753    9.8728 H   0  0  0  0  0  0  0  0  0  0  0  0
    2.7334  -11.9742    8.2206 H   0  0  0  0  0  0  0  0  0  0  0  0
    2.9456  -11.9434    9.9672 H   0  0  0  0  0  0  0  0  0  0  0  0
    4.9395  -10.5794    8.4906 H   0  0  0  0  0  0  0  0  0  0  0  0
    4.9464   -5.7599   10.2949 H   0  0  0  0  0  0  0  0  0  0  0  0
    3.4114   -5.7062   12.0395 H   0  0  0  0  0  0  0  0  0  0  0  0
    4.0425   -7.7456   13.8872 H   0  0  0  0  0  0  0  0  0  0  0  0
    6.7499   -7.9043   14.5419 H   0  0  0  0  0  0  0  0  0  0  0  0
    8.3410   -7.1837   13.2435 H   0  0  0  0  0  0  0  0  0  0  0  0
    8.5576   -7.3909   10.7415 H   0  0  0  0  0  0  0  0  0  0  0  0
    1.3082  -15.4565   10.2160 H   0  0  0  0  0  0  0  0  0  0  0  0
    2.4940  -16.7293   10.3256 H   0  0  0  0  0  0  0  0  0  0  0  0
   -0.7089  -19.2936    5.9697 H   0  0  0  0  0  0  0  0  0  0  0  0
   -2.2730  -21.0487    6.8416 H   0  0  0  0  0  0  0  0  0  0  0  0
   -2.8226  -21.1536    9.2514 H   0  0  0  0  0  0  0  0  0  0  0  0
   -1.8530  -19.5207   10.8542 H   0  0  0  0  0  0  0  0  0  0  0  0
  1  2  1  0
  2  3  1  0
  3  4  1  0
  4  5  1  0
  5  6  1  0
  6  7  2  0
  6  8  1  0
  8  9  2  0
  9 10  1  0
 10 11  2  0
 11 12  1  0
 12 13  1  0
 13 14  2  0
 14 15  1  0
 15 16  1  0
  2 17  1  0
 17 18  1  0
 18 19  2  0
 19 20  1  0
 20 21  2  0
 21 22  1  0
 22 23  2  0
 23 24  1  0
 24 25  2  0
 25 26  1  0
 16  8  1  0
 26 18  1  0
 16 12  2  0
 25 20  1  0
  1 27  1  0
  1 28  1  0
  1 29  1  0
  3 30  1  0
  3 31  1  0
  4 32  1  0
  4 33  1  0
  5 34  1  0
  9 35  1  0
 10 36  1  0
 11 37  1  0
 13 38  1  0
 14 39  1  0
 15 40  1  0
 17 41  1  0
 17 42  1  0
 21 43  1  0
 22 44  1  0
 23 45  1  0
 24 46  1  0
M  END
>  <Energy>  (1017) 
611.70357417957621

>  <compound_id>  (1017) 
76793

>  <target_id>  (1017) 
1

>  <reference_id>  (1017) 
2

>  <inspiration_ids>  (1017) 
[2, 97]

>  <energy_score>  (1017) 
500.0713697477536

>  <distance_score>  (1017) 
10.13169005132331

>  <path>  (1017) 
/opt/xchem-fragalysis-2/maxwin/BulkDock/SCRATCH/511022/C76793-P2/C76793-P2.minimised.mol

>  <scratch_subdir>  (1017) 
/opt/xchem-fragalysis-2/maxwin/BulkDock/SCRATCH/511022/C76793-P2

>  <fragmenstein_runtime>  (1017) 
23.33474612236023

>  <fragmenstein_outcome>  (1017) 
too moved

>  <fragmenstein_mode>  (1017) 
expansion

>  <fragmenstein_error>  (1017) 


$$$$
C76793-P97
     RDKit          3D

 46 49  0  0  0  0  0  0  0  0999 V2000
    5.2026  -16.9683    6.2431 C   0  0  0  0  0  0  0  0  0  0  0  0
    5.2730  -16.9889    7.7128 N   0  0  0  0  0  0  0  0  0  0  0  0
    6.7365  -17.0392    8.1776 C   0  0  0  0  0  0  0  0  0  0  0  0
    7.8883  -16.0455    7.6038 C   0  0  0  0  0  0  0  0  0  0  0  0
    8.7462  -15.2044    8.5137 N   0  0  0  0  0  0  0  0  0  0  0  0
    9.4890  -13.9561    8.2573 C   0  0  0  0  0  0  0  0  0  0  0  0
    9.5298  -13.2568    7.2795 O   0  0  0  0  0  0  0  0  0  0  0  0
   10.4457  -13.4313    9.3732 C   0  0  0  0  0  0  0  0  0  0  0  0
   10.9181  -14.2116   10.4459 C   0  0  0  0  0  0  0  0  0  0  0  0
   11.8249  -13.7158   11.4061 C   0  0  0  0  0  0  0  0  0  0  0  0
   12.3297  -12.4133   11.3433 C   0  0  0  0  0  0  0  0  0  0  0  0
   11.9223  -11.5913   10.2824 C   0  0  0  0  0  0  0  0  0  0  0  0
   12.2752  -10.2631    9.9102 C   0  0  0  0  0  0  0  0  0  0  0  0
   11.6233   -9.9892    8.7395 C   0  0  0  0  0  0  0  0  0  0  0  0
   10.8349  -11.0710    8.4243 N   0  0  0  0  0  0  0  0  0  0  0  0
   11.0070  -12.0994    9.3369 C   0  0  0  0  0  0  0  0  0  0  0  0
    4.4466  -18.1819    8.2062 C   0  0  0  0  0  0  0  0  0  0  0  0
    2.9086  -18.1374    8.1607 C   0  0  0  0  0  0  0  0  0  0  0  0
    2.0651  -18.3384    7.1549 N   0  0  0  0  0  0  0  0  0  0  0  0
    0.8163  -18.3768    7.7527 C   0  0  0  0  0  0  0  0  0  0  0  0
   -0.4722  -18.5410    7.2269 C   0  0  0  0  0  0  0  0  0  0  0  0
   -1.5538  -18.4961    8.1191 C   0  0  0  0  0  0  0  0  0  0  0  0
   -1.3667  -18.3226    9.4910 C   0  0  0  0  0  0  0  0  0  0  0  0
   -0.0923  -18.1954   10.0360 C   0  0  0  0  0  0  0  0  0  0  0  0
    0.9528  -18.2152    9.1201 C   0  0  0  0  0  0  0  0  0  0  0  0
    2.2825  -18.0722    9.3912 O   0  0  0  0  0  0  0  0  0  0  0  0
    4.1630  -16.9075    5.9043 H   0  0  0  0  0  0  0  0  0  0  0  0
    5.7004  -16.0878    5.8282 H   0  0  0  0  0  0  0  0  0  0  0  0
    5.6606  -17.8604    5.8015 H   0  0  0  0  0  0  0  0  0  0  0  0
    6.7077  -16.9082    9.2560 H   0  0  0  0  0  0  0  0  0  0  0  0
    7.0982  -18.0594    7.9920 H   0  0  0  0  0  0  0  0  0  0  0  0
    7.5109  -15.3854    6.8204 H   0  0  0  0  0  0  0  0  0  0  0  0
    8.6119  -16.6899    7.0876 H   0  0  0  0  0  0  0  0  0  0  0  0
    8.8819  -15.4774    9.4726 H   0  0  0  0  0  0  0  0  0  0  0  0
   10.6067  -15.2460   10.5522 H   0  0  0  0  0  0  0  0  0  0  0  0
   12.1394  -14.3637   12.2229 H   0  0  0  0  0  0  0  0  0  0  0  0
   13.0278  -12.0588   12.0956 H   0  0  0  0  0  0  0  0  0  0  0  0
   12.9719   -9.6036   10.4048 H   0  0  0  0  0  0  0  0  0  0  0  0
   11.6358   -9.1197    8.0950 H   0  0  0  0  0  0  0  0  0  0  0  0
   10.2328  -11.1468    7.6102 H   0  0  0  0  0  0  0  0  0  0  0  0
    4.7133  -18.3233    9.2622 H   0  0  0  0  0  0  0  0  0  0  0  0
    4.7757  -19.0898    7.6842 H   0  0  0  0  0  0  0  0  0  0  0  0
   -0.6198  -18.6621    6.1591 H   0  0  0  0  0  0  0  0  0  0  0  0
   -2.5611  -18.5939    7.7450 H   0  0  0  0  0  0  0  0  0  0  0  0
   -2.2291  -18.3153   10.1477 H   0  0  0  0  0  0  0  0  0  0  0  0
    0.0749  -18.0706   11.0981 H   0  0  0  0  0  0  0  0  0  0  0  0
  1  2  1  0
  2  3  1  0
  3  4  1  0
  4  5  1  0
  5  6  1  0
  6  7  2  0
  6  8  1  0
  8  9  2  0
  9 10  1  0
 10 11  2  0
 11 12  1  0
 12 13  1  0
 13 14  2  0
 14 15  1  0
 15 16  1  0
  2 17  1  0
 17 18  1  0
 18 19  2  0
 19 20  1  0
 20 21  2  0
 21 22  1  0
 22 23  2  0
 23 24  1  0
 24 25  2  0
 25 26  1  0
 16  8  1  0
 26 18  1  0
 16 12  2  0
 25 20  1  0
  1 27  1  0
  1 28  1  0
  1 29  1  0
  3 30  1  0
  3 31  1  0
  4 32  1  0
  4 33  1  0
  5 34  1  0
  9 35  1  0
 10 36  1  0
 11 37  1  0
 13 38  1  0
 14 39  1  0
 15 40  1  0
 17 41  1  0
 17 42  1  0
 21 43  1  0
 22 44  1  0
 23 45  1  0
 24 46  1  0
M  END
>  <Energy>  (1018) 
110.72710974463365

>  <compound_id>  (1018) 
76793

>  <target_id>  (1018) 
1

>  <reference_id>  (1018) 
97

>  <inspiration_ids>  (1018) 
[2, 97]

>  <energy_score>  (1018) 
-0.9050946871606129

>  <distance_score>  (1018) 
11.299731777299904

>  <path>  (1018) 
/opt/xchem-fragalysis-2/maxwin/BulkDock/SCRATCH/511022/C76793-P97/C76793-P97.minimised.mol

>  <scratch_subdir>  (1018) 
/opt/xchem-fragalysis-2/maxwin/BulkDock/SCRATCH/511022/C76793-P97

>  <fragmenstein_runtime>  (1018) 
36.63993191719055

>  <fragmenstein_outcome>  (1018) 
too moved

>  <fragmenstein_mode>  (1018) 
expansion

>  <fragmenstein_error>  (1018) 


$$$$
C76786-P2
     RDKit          3D

 40 43  0  0  0  0  0  0  0  0999 V2000
    3.0872  -11.4532    9.7611 C   0  0  0  0  0  0  0  0  0  0  0  0
    2.5052  -11.3647   11.1692 N   0  0  0  0  0  0  0  0  0  0  0  0
    2.9619   -9.6054   10.9642 C   0  0  0  0  0  0  0  0  0  0  0  0
    3.0016   -7.6161   11.3966 C   0  0  0  0  0  0  0  0  0  0  0  0
    4.0680   -6.6607   11.9204 C   0  0  0  0  0  0  0  0  0  0  0  0
    4.1509   -5.2488   11.8713 C   0  0  0  0  0  0  0  0  0  0  0  0
    3.1156   -4.4870   11.4582 C   0  0  0  0  0  0  0  0  0  0  0  0
    1.9899   -5.1814   11.0719 C   0  0  0  0  0  0  0  0  0  0  0  0
    0.7754   -4.6290   10.6052 C   0  0  0  0  0  0  0  0  0  0  0  0
    0.0368   -5.6713   10.1439 C   0  0  0  0  0  0  0  0  0  0  0  0
    0.7495   -6.8136   10.3669 N   0  0  0  0  0  0  0  0  0  0  0  0
    1.9492   -6.6055   11.0091 C   0  0  0  0  0  0  0  0  0  0  0  0
    1.0054  -12.0978   11.2338 C   0  0  0  0  0  0  0  0  0  0  0  0
   -0.0576  -11.5662   11.0559 O   0  0  0  0  0  0  0  0  0  0  0  0
    0.7674  -13.9366   11.4405 C   0  0  0  0  0  0  0  0  0  0  0  0
   -0.3190  -14.3025   12.0555 C   0  0  0  0  0  0  0  0  0  0  0  0
   -1.2886  -14.8633   11.2027 C   0  0  0  0  0  0  0  0  0  0  0  0
   -1.0824  -15.7242   10.1465 C   0  0  0  0  0  0  0  0  0  0  0  0
    0.1922  -16.1463    9.9865 C   0  0  0  0  0  0  0  0  0  0  0  0
    0.6516  -16.9454    8.9696 N   0  0  0  0  0  0  0  0  0  0  0  0
    1.8973  -16.6503    8.9229 C   0  0  0  0  0  0  0  0  0  0  0  0
    2.7954  -17.1805    8.0930 N   0  0  0  0  0  0  0  0  0  0  0  0
    2.2565  -15.6174    9.7280 O   0  0  0  0  0  0  0  0  0  0  0  0
    1.0946  -15.2746   10.5308 C   0  0  0  0  0  0  0  0  0  0  0  0
    3.8238  -10.8331    9.2708 H   0  0  0  0  0  0  0  0  0  0  0  0
    3.6738  -12.3393   10.0578 H   0  0  0  0  0  0  0  0  0  0  0  0
    2.7353  -12.0947    8.9491 H   0  0  0  0  0  0  0  0  0  0  0  0
    3.2696   -9.9029   11.9393 H   0  0  0  0  0  0  0  0  0  0  0  0
    3.8163   -9.5701   10.2938 H   0  0  0  0  0  0  0  0  0  0  0  0
    4.7970   -7.0070   12.6733 H   0  0  0  0  0  0  0  0  0  0  0  0
    4.9799   -4.6904   12.2426 H   0  0  0  0  0  0  0  0  0  0  0  0
    3.1612   -3.4043   11.4579 H   0  0  0  0  0  0  0  0  0  0  0  0
    0.5121   -3.5819   10.5394 H   0  0  0  0  0  0  0  0  0  0  0  0
   -0.9244   -5.7064    9.6490 H   0  0  0  0  0  0  0  0  0  0  0  0
    0.4993   -7.7133    9.9951 H   0  0  0  0  0  0  0  0  0  0  0  0
   -0.4207  -13.8261   13.0240 H   0  0  0  0  0  0  0  0  0  0  0  0
   -2.3506  -14.7974   11.4206 H   0  0  0  0  0  0  0  0  0  0  0  0
   -1.8738  -16.0940    9.4919 H   0  0  0  0  0  0  0  0  0  0  0  0
    2.4825  -18.0698    7.7149 H   0  0  0  0  0  0  0  0  0  0  0  0
    3.7332  -17.2420    8.4673 H   0  0  0  0  0  0  0  0  0  0  0  0
  1  2  1  0
  2  3  1  0
  3  4  1  0
  4  5  2  0
  5  6  1  0
  6  7  2  0
  7  8  1  0
  8  9  1  0
  9 10  2  0
 10 11  1  0
 11 12  1  0
  2 13  1  0
 13 14  2  0
 13 15  1  0
 15 16  2  0
 16 17  1  0
 17 18  2  0
 18 19  1  0
 19 20  1  0
 20 21  2  0
 21 22  1  0
 21 23  1  0
 23 24  1  0
 12  4  1  0
 24 15  1  0
 12  8  2  0
 24 19  2  0
  1 25  1  0
  1 26  1  0
  1 27  1  0
  3 28  1  0
  3 29  1  0
  5 30  1  0
  6 31  1  0
  7 32  1  0
  9 33  1  0
 10 34  1  0
 11 35  1  0
 16 36  1  0
 17 37  1  0
 18 38  1  0
 22 39  1  0
 22 40  1  0
M  END
>  <Energy>  (1019) 
448.58378923383009

>  <compound_id>  (1019) 
76786

>  <target_id>  (1019) 
1

>  <reference_id>  (1019) 
2

>  <inspiration_ids>  (1019) 
[2, 97]

>  <energy_score>  (1019) 
434.5779992583546

>  <distance_score>  (1019) 
12.279554169093352

>  <path>  (1019) 
/opt/xchem-fragalysis-2/maxwin/BulkDock/SCRATCH/511022/C76786-P2/C76786-P2.minimised.mol

>  <scratch_subdir>  (1019) 
/opt/xchem-fragalysis-2/maxwin/BulkDock/SCRATCH/511022/C76786-P2

>  <fragmenstein_runtime>  (1019) 
18.913100481033325

>  <fragmenstein_outcome>  (1019) 
too moved

>  <fragmenstein_mode>  (1019) 
expansion

>  <fragmenstein_error>  (1019) 


$$$$
C76786-P97
     RDKit          3D

 40 43  0  0  0  0  0  0  0  0999 V2000
   -0.2872  -11.3807   11.5337 C   0  0  0  0  0  0  0  0  0  0  0  0
   -0.2713  -12.3360   12.4854 N   0  0  0  0  0  0  0  0  0  0  0  0
    1.6584  -11.3998   12.8371 C   0  0  0  0  0  0  0  0  0  0  0  0
    3.2374  -10.2883   13.9793 C   0  0  0  0  0  0  0  0  0  0  0  0
    2.8672   -8.6690   15.0345 C   0  0  0  0  0  0  0  0  0  0  0  0
    3.2811   -6.9720   15.5943 C   0  0  0  0  0  0  0  0  0  0  0  0
    4.0994   -6.2432   14.8126 C   0  0  0  0  0  0  0  0  0  0  0  0
    4.5880   -7.0962   13.6421 C   0  0  0  0  0  0  0  0  0  0  0  0
    4.6929   -6.2163   12.3696 C   0  0  0  0  0  0  0  0  0  0  0  0
    3.7888   -6.6700   11.4821 C   0  0  0  0  0  0  0  0  0  0  0  0
    3.4706   -7.9501   11.8491 N   0  0  0  0  0  0  0  0  0  0  0  0
    4.0878   -8.6831   13.3648 C   0  0  0  0  0  0  0  0  0  0  0  0
   -0.8821  -14.1363   11.6856 C   0  0  0  0  0  0  0  0  0  0  0  0
    0.0274  -14.8380   11.2342 O   0  0  0  0  0  0  0  0  0  0  0  0
   -2.8706  -15.0813   11.2463 C   0  0  0  0  0  0  0  0  0  0  0  0
   -4.8546  -15.1946   11.7643 C   0  0  0  0  0  0  0  0  0  0  0  0
   -5.6551  -17.0474   12.3452 C   0  0  0  0  0  0  0  0  0  0  0  0
   -4.5664  -18.8779   12.1715 C   0  0  0  0  0  0  0  0  0  0  0  0
   -3.2520  -18.4674   10.6171 C   0  0  0  0  0  0  0  0  0  0  0  0
   -3.3316  -18.9348    9.2123 N   0  0  0  0  0  0  0  0  0  0  0  0
   -2.7098  -18.1122    8.3894 C   0  0  0  0  0  0  0  0  0  0  0  0
   -1.9900  -18.5686    7.3444 N   0  0  0  0  0  0  0  0  0  0  0  0
   -2.4039  -16.8329    8.7961 O   0  0  0  0  0  0  0  0  0  0  0  0
   -2.9725  -16.5959   10.0482 C   0  0  0  0  0  0  0  0  0  0  0  0
   -0.3279  -12.1410   10.8245 H   0  0  0  0  0  0  0  0  0  0  0  0
   -1.1869  -10.8580   11.7018 H   0  0  0  0  0  0  0  0  0  0  0  0
    0.4942  -10.9305   10.9461 H   0  0  0  0  0  0  0  0  0  0  0  0
    2.2161  -11.4375   11.7964 H   0  0  0  0  0  0  0  0  0  0  0  0
    1.2642  -10.6223   12.2449 H   0  0  0  0  0  0  0  0  0  0  0  0
    2.7717   -8.5628   16.2597 H   0  0  0  0  0  0  0  0  0  0  0  0
    2.7728   -6.5888   16.4831 H   0  0  0  0  0  0  0  0  0  0  0  0
    4.1849   -5.1697   14.9168 H   0  0  0  0  0  0  0  0  0  0  0  0
    4.8332   -5.1423   12.3475 H   0  0  0  0  0  0  0  0  0  0  0  0
    3.2693   -6.1267   10.7238 H   0  0  0  0  0  0  0  0  0  0  0  0
    2.6612   -8.4826   11.6064 H   0  0  0  0  0  0  0  0  0  0  0  0
   -5.1174  -14.3993   12.4948 H   0  0  0  0  0  0  0  0  0  0  0  0
   -6.2079  -17.0884   13.3135 H   0  0  0  0  0  0  0  0  0  0  0  0
   -5.0234  -19.8792   12.2257 H   0  0  0  0  0  0  0  0  0  0  0  0
   -2.1483  -18.1821    6.4301 H   0  0  0  0  0  0  0  0  0  0  0  0
   -1.9939  -19.5852    7.3295 H   0  0  0  0  0  0  0  0  0  0  0  0
  1  2  1  0
  2  3  1  0
  3  4  1  0
  4  5  2  0
  5  6  1  0
  6  7  2  0
  7  8  1  0
  8  9  1  0
  9 10  2  0
 10 11  1  0
 11 12  1  0
  2 13  1  0
 13 14  2  0
 13 15  1  0
 15 16  2  0
 16 17  1  0
 17 18  2  0
 18 19  1  0
 19 20  1  0
 20 21  2  0
 21 22  1  0
 21 23  1  0
 23 24  1  0
 12  4  1  0
 24 15  1  0
 12  8  2  0
 24 19  2  0
  1 25  1  0
  1 26  1  0
  1 27  1  0
  3 28  1  0
  3 29  1  0
  5 30  1  0
  6 31  1  0
  7 32  1  0
  9 33  1  0
 10 34  1  0
 11 35  1  0
 16 36  1  0
 17 37  1  0
 18 38  1  0
 22 39  1  0
 22 40  1  0
M  END
>  <Energy>  (1020) 
2297.8561304438231

>  <compound_id>  (1020) 
76786

>  <target_id>  (1020) 
1

>  <reference_id>  (1020) 
97

>  <inspiration_ids>  (1020) 
[2, 97]

>  <energy_score>  (1020) 
2283.8503404683775

>  <distance_score>  (1020) 
9.741053685588863

>  <path>  (1020) 
/opt/xchem-fragalysis-2/maxwin/BulkDock/SCRATCH/511022/C76786-P97/C76786-P97.minimised.mol

>  <scratch_subdir>  (1020) 
/opt/xchem-fragalysis-2/maxwin/BulkDock/SCRATCH/511022/C76786-P97

>  <fragmenstein_runtime>  (1020) 
18.51463794708252

>  <fragmenstein_outcome>  (1020) 
too moved

>  <fragmenstein_mode>  (1020) 
expansion

>  <fragmenstein_error>  (1020) 


$$$$
C76794-P2
     RDKit          3D

 32 35  0  0  0  0  0  0  0  0999 V2000
    4.5070  -13.4636   10.7690 O   0  0  0  0  0  0  0  0  0  0  0  0
    3.7930  -12.6067   11.2127 C   0  0  0  0  0  0  0  0  0  0  0  0
    1.8562  -12.8766   11.1625 N   0  0  0  0  0  0  0  0  0  0  0  0
    0.8236  -14.4260   10.7133 C   0  0  0  0  0  0  0  0  0  0  0  0
    1.6033  -15.5577    9.9099 C   0  0  0  0  0  0  0  0  0  0  0  0
    1.1983  -16.8196    9.5168 C   0  0  0  0  0  0  0  0  0  0  0  0
   -0.0257  -17.1185   10.0180 C   0  0  0  0  0  0  0  0  0  0  0  0
   -0.6243  -18.2916    9.7642 O   0  0  0  0  0  0  0  0  0  0  0  0
   -1.6856  -18.3048   10.6078 C   0  0  0  0  0  0  0  0  0  0  0  0
   -2.3402  -19.6564   10.6398 C   0  0  0  0  0  0  0  0  0  0  0  0
   -2.9461  -19.9297    9.4588 F   0  0  0  0  0  0  0  0  0  0  0  0
   -3.1827  -19.7735   11.6677 F   0  0  0  0  0  0  0  0  0  0  0  0
   -1.3968  -20.6364   10.8014 F   0  0  0  0  0  0  0  0  0  0  0  0
   -1.8600  -17.1407   11.2548 N   0  0  0  0  0  0  0  0  0  0  0  0
   -0.7779  -16.3383   10.8882 C   0  0  0  0  0  0  0  0  0  0  0  0
   -0.3051  -14.9914   11.2810 C   0  0  0  0  0  0  0  0  0  0  0  0
    4.9518  -11.2089   12.2068 C   0  0  0  0  0  0  0  0  0  0  0  0
    6.1790  -11.8232   13.4553 C   0  0  0  0  0  0  0  0  0  0  0  0
    7.4831  -10.4473   14.1745 C   0  0  0  0  0  0  0  0  0  0  0  0
    8.7943  -10.2393   14.6802 C   0  0  0  0  0  0  0  0  0  0  0  0
    8.9094   -8.8584   14.7594 C   0  0  0  0  0  0  0  0  0  0  0  0
    7.6308   -7.8868   14.0350 S   0  0  0  0  0  0  0  0  0  0  0  0
    6.9886   -9.3521   13.6606 C   0  0  0  0  0  0  0  0  0  0  0  0
    5.4279  -10.3707   13.6650 N   0  0  0  0  0  0  0  0  0  0  0  0
    1.3860  -12.0143   11.4970 H   0  0  0  0  0  0  0  0  0  0  0  0
    2.5968  -15.2921    9.5123 H   0  0  0  0  0  0  0  0  0  0  0  0
    1.7867  -17.4852    8.9035 H   0  0  0  0  0  0  0  0  0  0  0  0
   -0.6563  -14.5109   12.1493 H   0  0  0  0  0  0  0  0  0  0  0  0
    6.5568  -12.8518   13.3766 H   0  0  0  0  0  0  0  0  0  0  0  0
    9.5034  -10.9771   15.0272 H   0  0  0  0  0  0  0  0  0  0  0  0
    9.6546   -8.2672   15.2135 H   0  0  0  0  0  0  0  0  0  0  0  0
    5.9540  -10.4717   12.8604 H   0  0  0  0  0  0  0  0  0  0  0  0
  1  2  2  0
  2  3  1  0
  3  4  1  0
  4  5  2  0
  5  6  1  0
  6  7  2  0
  7  8  1  0
  8  9  1  0
  9 10  1  0
 10 11  1  0
 10 12  1  0
 10 13  1  0
  9 14  2  0
 14 15  1  0
 15 16  2  0
  2 17  1  0
 17 18  2  0
 18 19  1  0
 19 20  1  0
 20 21  2  0
 21 22  1  0
 22 23  1  0
 23 24  1  0
 16  4  1  0
 24 17  1  0
 15  7  1  0
 23 19  2  0
  3 25  1  0
  5 26  1  0
  6 27  1  0
 16 28  1  0
 18 29  1  0
 20 30  1  0
 21 31  1  0
 24 32  1  0
M  END
>  <Energy>  (1021) 
943.89492107658953

>  <compound_id>  (1021) 
76794

>  <target_id>  (1021) 
1

>  <reference_id>  (1021) 
2

>  <inspiration_ids>  (1021) 
[2, 97]

>  <energy_score>  (1021) 
824.6782265833506

>  <distance_score>  (1021) 
10.810211373689361

>  <path>  (1021) 
/opt/xchem-fragalysis-2/maxwin/BulkDock/SCRATCH/511022/C76794-P2/C76794-P2.minimised.mol

>  <scratch_subdir>  (1021) 
/opt/xchem-fragalysis-2/maxwin/BulkDock/SCRATCH/511022/C76794-P2

>  <fragmenstein_runtime>  (1021) 
9.862406730651855

>  <fragmenstein_outcome>  (1021) 
too moved

>  <fragmenstein_mode>  (1021) 
expansion

>  <fragmenstein_error>  (1021) 


$$$$
C76794-P97
     RDKit          3D

 32 35  0  0  0  0  0  0  0  0999 V2000
    2.7282  -10.6396   10.6021 O   0  0  0  0  0  0  0  0  0  0  0  0
    3.4798  -11.2458   11.3260 C   0  0  0  0  0  0  0  0  0  0  0  0
    4.0615  -12.9832   11.0220 N   0  0  0  0  0  0  0  0  0  0  0  0
    3.7028  -14.1052    9.7881 C   0  0  0  0  0  0  0  0  0  0  0  0
    4.8367  -15.0184    9.4787 C   0  0  0  0  0  0  0  0  0  0  0  0
    4.8615  -16.3061    8.6916 C   0  0  0  0  0  0  0  0  0  0  0  0
    3.6560  -16.8567    8.2388 C   0  0  0  0  0  0  0  0  0  0  0  0
    3.3237  -18.0069    7.5500 O   0  0  0  0  0  0  0  0  0  0  0  0
    1.9237  -18.0564    7.5974 C   0  0  0  0  0  0  0  0  0  0  0  0
    1.2222  -19.1947    6.8961 C   0  0  0  0  0  0  0  0  0  0  0  0
   -0.1142  -18.9829    6.7536 F   0  0  0  0  0  0  0  0  0  0  0  0
    1.3657  -20.3724    7.5608 F   0  0  0  0  0  0  0  0  0  0  0  0
    1.7117  -19.3980    5.6411 F   0  0  0  0  0  0  0  0  0  0  0  0
    1.3992  -17.0643    8.3048 N   0  0  0  0  0  0  0  0  0  0  0  0
    2.4847  -16.2797    8.6223 C   0  0  0  0  0  0  0  0  0  0  0  0
    2.6284  -15.1412    9.4855 C   0  0  0  0  0  0  0  0  0  0  0  0
    4.0102  -10.3421   13.0549 C   0  0  0  0  0  0  0  0  0  0  0  0
    4.0672   -8.5632   13.1706 C   0  0  0  0  0  0  0  0  0  0  0  0
    4.9414   -7.6205   13.6808 C   0  0  0  0  0  0  0  0  0  0  0  0
    5.1514   -6.2629   13.9159 C   0  0  0  0  0  0  0  0  0  0  0  0
    6.2754   -6.2126   14.7589 C   0  0  0  0  0  0  0  0  0  0  0  0
    7.3038   -7.5789   14.3683 S   0  0  0  0  0  0  0  0  0  0  0  0
    5.8675   -8.4630   14.0545 C   0  0  0  0  0  0  0  0  0  0  0  0
    5.2246  -10.1495   14.0033 N   0  0  0  0  0  0  0  0  0  0  0  0
    4.7257  -13.2304   11.6989 H   0  0  0  0  0  0  0  0  0  0  0  0
    5.8240  -14.7361    9.8562 H   0  0  0  0  0  0  0  0  0  0  0  0
    5.8088  -16.8035    8.5088 H   0  0  0  0  0  0  0  0  0  0  0  0
    1.8465  -15.4573   10.1920 H   0  0  0  0  0  0  0  0  0  0  0  0
    3.5757   -8.1321   12.2467 H   0  0  0  0  0  0  0  0  0  0  0  0
    4.4714   -5.4408   13.7412 H   0  0  0  0  0  0  0  0  0  0  0  0
    6.6499   -5.3970   15.3641 H   0  0  0  0  0  0  0  0  0  0  0  0
    5.9227  -10.8715   14.1002 H   0  0  0  0  0  0  0  0  0  0  0  0
  1  2  2  0
  2  3  1  0
  3  4  1  0
  4  5  2  0
  5  6  1  0
  6  7  2  0
  7  8  1  0
  8  9  1  0
  9 10  1  0
 10 11  1  0
 10 12  1  0
 10 13  1  0
  9 14  2  0
 14 15  1  0
 15 16  2  0
  2 17  1  0
 17 18  2  0
 18 19  1  0
 19 20  1  0
 20 21  2  0
 21 22  1  0
 22 23  1  0
 23 24  1  0
 16  4  1  0
 24 17  1  0
 15  7  1  0
 23 19  2  0
  3 25  1  0
  5 26  1  0
  6 27  1  0
 16 28  1  0
 18 29  1  0
 20 30  1  0
 21 31  1  0
 24 32  1  0
M  END
>  <Energy>  (1022) 
535.68604960524124

>  <compound_id>  (1022) 
76794

>  <target_id>  (1022) 
1

>  <reference_id>  (1022) 
97

>  <inspiration_ids>  (1022) 
[2, 97]

>  <energy_score>  (1022) 
416.4693551120084

>  <distance_score>  (1022) 
12.085679069477626

>  <path>  (1022) 
/opt/xchem-fragalysis-2/maxwin/BulkDock/SCRATCH/511022/C76794-P97/C76794-P97.minimised.mol

>  <scratch_subdir>  (1022) 
/opt/xchem-fragalysis-2/maxwin/BulkDock/SCRATCH/511022/C76794-P97

>  <fragmenstein_runtime>  (1022) 
10.952197790145874

>  <fragmenstein_outcome>  (1022) 
too moved

>  <fragmenstein_mode>  (1022) 
expansion

>  <fragmenstein_error>  (1022) 


$$$$
C76795-P2
     RDKit          3D

 35 38  0  0  0  0  0  0  0  0999 V2000
   -0.6949  -11.4117   10.8240 O   0  0  0  0  0  0  0  0  0  0  0  0
    0.0598  -12.2447   10.9189 C   0  0  0  0  0  0  0  0  0  0  0  0
   -0.7282  -13.9487   10.4159 N   0  0  0  0  0  0  0  0  0  0  0  0
   -2.4746  -14.3978    9.6264 C   0  0  0  0  0  0  0  0  0  0  0  0
   -3.2011  -12.9323    8.8407 C   0  0  0  0  0  0  0  0  0  0  0  0
   -4.4245  -12.2982    8.1533 C   0  0  0  0  0  0  0  0  0  0  0  0
   -5.2544  -13.2759    8.4722 C   0  0  0  0  0  0  0  0  0  0  0  0
   -6.5261  -13.6208    9.0396 O   0  0  0  0  0  0  0  0  0  0  0  0
   -6.8606  -14.6296    8.0925 C   0  0  0  0  0  0  0  0  0  0  0  0
   -7.2833  -16.5779    8.3552 C   0  0  0  0  0  0  0  0  0  0  0  0
   -7.5176  -17.5027    7.3077 F   0  0  0  0  0  0  0  0  0  0  0  0
   -8.4399  -17.2089    8.6343 F   0  0  0  0  0  0  0  0  0  0  0  0
   -6.2254  -17.3572    8.7872 F   0  0  0  0  0  0  0  0  0  0  0  0
   -5.8374  -14.2275    7.1077 N   0  0  0  0  0  0  0  0  0  0  0  0
   -4.6994  -14.4120    7.9889 C   0  0  0  0  0  0  0  0  0  0  0  0
   -3.2707  -15.1380    8.6514 C   0  0  0  0  0  0  0  0  0  0  0  0
    1.8096  -11.4528   11.3062 C   0  0  0  0  0  0  0  0  0  0  0  0
    2.8700  -10.8002   11.9062 C   0  0  0  0  0  0  0  0  0  0  0  0
    3.9631  -10.1920   13.2373 C   0  0  0  0  0  0  0  0  0  0  0  0
    4.1346   -8.7701   13.1490 C   0  0  0  0  0  0  0  0  0  0  0  0
    3.3775   -8.4672   11.5666 C   0  0  0  0  0  0  0  0  0  0  0  0
    3.7560   -7.2195   10.7153 C   0  0  0  0  0  0  0  0  0  0  0  0
    4.4969   -7.9854    9.7903 C   0  0  0  0  0  0  0  0  0  0  0  0
    4.0244   -9.7092    9.9497 N   0  0  0  0  0  0  0  0  0  0  0  0
    2.5686   -9.9234   10.8133 C   0  0  0  0  0  0  0  0  0  0  0  0
   -0.0447  -14.6786   10.5977 H   0  0  0  0  0  0  0  0  0  0  0  0
   -2.6873  -11.9723    9.0706 H   0  0  0  0  0  0  0  0  0  0  0  0
   -4.5785  -11.2280    8.1471 H   0  0  0  0  0  0  0  0  0  0  0  0
   -2.9618  -16.0571    8.1649 H   0  0  0  0  0  0  0  0  0  0  0  0
    3.6734  -11.4071   11.1673 H   0  0  0  0  0  0  0  0  0  0  0  0
    4.4028  -10.8146   14.0046 H   0  0  0  0  0  0  0  0  0  0  0  0
    4.6874   -7.9698   13.5952 H   0  0  0  0  0  0  0  0  0  0  0  0
    4.0455   -6.2292   11.0407 H   0  0  0  0  0  0  0  0  0  0  0  0
    5.1890   -7.8209    8.9663 H   0  0  0  0  0  0  0  0  0  0  0  0
    4.2708  -10.3715    9.2234 H   0  0  0  0  0  0  0  0  0  0  0  0
  1  2  2  0
  2  3  1  0
  3  4  1  0
  4  5  2  0
  5  6  1  0
  6  7  2  0
  7  8  1  0
  8  9  1  0
  9 10  1  0
 10 11  1  0
 10 12  1  0
 10 13  1  0
  9 14  2  0
 14 15  1  0
 15 16  2  0
  2 17  1  0
 17 18  2  0
 18 19  1  0
 19 20  2  0
 20 21  1  0
 21 22  1  0
 22 23  2  0
 23 24  1  0
 24 25  1  0
 16  4  1  0
 25 17  1  0
 15  7  1  0
 25 21  2  0
  3 26  1  0
  5 27  1  0
  6 28  1  0
 16 29  1  0
 18 30  1  0
 19 31  1  0
 20 32  1  0
 22 33  1  0
 23 34  1  0
 24 35  1  0
M  END
>  <Energy>  (1023) 
1437.4987970367379

>  <compound_id>  (1023) 
76795

>  <target_id>  (1023) 
1

>  <reference_id>  (1023) 
2

>  <inspiration_ids>  (1023) 
[2, 97]

>  <energy_score>  (1023) 
1313.813413854164

>  <distance_score>  (1023) 
11.2242548438334

>  <path>  (1023) 
/opt/xchem-fragalysis-2/maxwin/BulkDock/SCRATCH/511022/C76795-P2/C76795-P2.minimised.mol

>  <scratch_subdir>  (1023) 
/opt/xchem-fragalysis-2/maxwin/BulkDock/SCRATCH/511022/C76795-P2

>  <fragmenstein_runtime>  (1023) 
16.629231929779053

>  <fragmenstein_outcome>  (1023) 
too moved

>  <fragmenstein_mode>  (1023) 
expansion

>  <fragmenstein_error>  (1023) 


$$$$
C76795-P97
     RDKit          3D

 35 38  0  0  0  0  0  0  0  0999 V2000
   -7.8738  -14.1205    7.3739 O   0  0  0  0  0  0  0  0  0  0  0  0
   -7.2513  -14.6703    8.2663 C   0  0  0  0  0  0  0  0  0  0  0  0
   -7.2101  -16.3802    8.7443 N   0  0  0  0  0  0  0  0  0  0  0  0
   -7.9991  -17.9654    7.9374 C   0  0  0  0  0  0  0  0  0  0  0  0
   -8.0037  -18.6957    6.2012 C   0  0  0  0  0  0  0  0  0  0  0  0
   -8.8315  -19.6961    5.4347 C   0  0  0  0  0  0  0  0  0  0  0  0
   -9.7077  -20.4463    6.1902 C   0  0  0  0  0  0  0  0  0  0  0  0
  -10.3698  -21.5495    5.7518 O   0  0  0  0  0  0  0  0  0  0  0  0
  -10.8691  -22.1215    6.8931 C   0  0  0  0  0  0  0  0  0  0  0  0
  -11.5531  -23.4393    6.7145 C   0  0  0  0  0  0  0  0  0  0  0  0
  -12.3351  -23.4714    5.6022 F   0  0  0  0  0  0  0  0  0  0  0  0
  -12.3648  -23.7446    7.7627 F   0  0  0  0  0  0  0  0  0  0  0  0
  -10.6643  -24.4621    6.5971 F   0  0  0  0  0  0  0  0  0  0  0  0
  -10.6264  -21.4174    7.9935 N   0  0  0  0  0  0  0  0  0  0  0  0
   -9.8731  -20.3393    7.5627 C   0  0  0  0  0  0  0  0  0  0  0  0
   -9.0995  -19.3153    8.3514 C   0  0  0  0  0  0  0  0  0  0  0  0
   -6.3209  -13.6704    8.9199 C   0  0  0  0  0  0  0  0  0  0  0  0
   -5.2508  -13.6415    7.9258 C   0  0  0  0  0  0  0  0  0  0  0  0
   -4.7159  -12.4959    7.3030 C   0  0  0  0  0  0  0  0  0  0  0  0
   -5.0683  -11.2212    7.7090 C   0  0  0  0  0  0  0  0  0  0  0  0
   -5.9894  -11.1124    8.7623 C   0  0  0  0  0  0  0  0  0  0  0  0
   -6.2874   -9.9869    9.5872 C   0  0  0  0  0  0  0  0  0  0  0  0
   -7.0613  -10.4536   10.6135 C   0  0  0  0  0  0  0  0  0  0  0  0
   -7.3243  -11.7889   10.3917 N   0  0  0  0  0  0  0  0  0  0  0  0
   -6.6357  -12.2850    9.2888 C   0  0  0  0  0  0  0  0  0  0  0  0
   -6.6555  -16.4907    9.5769 H   0  0  0  0  0  0  0  0  0  0  0  0
   -7.1413  -18.7505    5.5655 H   0  0  0  0  0  0  0  0  0  0  0  0
   -8.6041  -19.9450    4.4046 H   0  0  0  0  0  0  0  0  0  0  0  0
   -8.9235  -19.9283    9.2731 H   0  0  0  0  0  0  0  0  0  0  0  0
   -4.9587  -14.5899    7.4659 H   0  0  0  0  0  0  0  0  0  0  0  0
   -4.0565  -12.6249    6.4495 H   0  0  0  0  0  0  0  0  0  0  0  0
   -4.5964  -10.3415    7.2834 H   0  0  0  0  0  0  0  0  0  0  0  0
   -5.8962   -8.9832    9.4807 H   0  0  0  0  0  0  0  0  0  0  0  0
   -7.4682   -9.9572   11.4839 H   0  0  0  0  0  0  0  0  0  0  0  0
   -7.8508  -12.3669   11.0303 H   0  0  0  0  0  0  0  0  0  0  0  0
  1  2  2  0
  2  3  1  0
  3  4  1  0
  4  5  2  0
  5  6  1  0
  6  7  2  0
  7  8  1  0
  8  9  1  0
  9 10  1  0
 10 11  1  0
 10 12  1  0
 10 13  1  0
  9 14  2  0
 14 15  1  0
 15 16  2  0
  2 17  1  0
 17 18  2  0
 18 19  1  0
 19 20  2  0
 20 21  1  0
 21 22  1  0
 22 23  2  0
 23 24  1  0
 24 25  1  0
 16  4  1  0
 25 17  1  0
 15  7  1  0
 25 21  2  0
  3 26  1  0
  5 27  1  0
  6 28  1  0
 16 29  1  0
 18 30  1  0
 19 31  1  0
 20 32  1  0
 22 33  1  0
 23 34  1  0
 24 35  1  0
M  END
>  <Energy>  (1024) 
521.35056453455945

>  <compound_id>  (1024) 
76795

>  <target_id>  (1024) 
1

>  <reference_id>  (1024) 
97

>  <inspiration_ids>  (1024) 
[2, 97]

>  <energy_score>  (1024) 
397.6651813520009

>  <distance_score>  (1024) 
16.54171003270683

>  <path>  (1024) 
/opt/xchem-fragalysis-2/maxwin/BulkDock/SCRATCH/511022/C76795-P97/C76795-P97.minimised.mol

>  <scratch_subdir>  (1024) 
/opt/xchem-fragalysis-2/maxwin/BulkDock/SCRATCH/511022/C76795-P97

>  <fragmenstein_runtime>  (1024) 
16.67769742012024

>  <fragmenstein_outcome>  (1024) 
too moved

>  <fragmenstein_mode>  (1024) 
expansion

>  <fragmenstein_error>  (1024) 


$$$$
C76796-P2
     RDKit          3D

 38 41  0  0  0  0  0  0  0  0999 V2000
   -6.2171  -19.1402   12.1919 C   0  0  0  0  0  0  0  0  0  0  0  0
   -6.3975  -17.7390   12.7043 C   0  0  0  0  0  0  0  0  0  0  0  0
   -5.5137  -16.5116   12.8942 C   0  0  0  0  0  0  0  0  0  0  0  0
   -5.1618  -15.7219   11.8511 N   0  0  0  0  0  0  0  0  0  0  0  0
   -3.7065  -15.7054   12.0289 C   0  0  0  0  0  0  0  0  0  0  0  0
   -1.9836  -15.4918   11.2233 C   0  0  0  0  0  0  0  0  0  0  0  0
   -0.7561  -14.3658   11.1453 C   0  0  0  0  0  0  0  0  0  0  0  0
    0.1344  -12.6810   11.6054 N   0  0  0  0  0  0  0  0  0  0  0  0
    1.8316  -11.9013   11.0372 C   0  0  0  0  0  0  0  0  0  0  0  0
    2.5290  -12.5564   10.2976 O   0  0  0  0  0  0  0  0  0  0  0  0
    2.8215  -10.2441   11.5457 C   0  0  0  0  0  0  0  0  0  0  0  0
    3.7679  -10.3391   13.0155 C   0  0  0  0  0  0  0  0  0  0  0  0
    4.5916   -9.5351   13.7562 C   0  0  0  0  0  0  0  0  0  0  0  0
    4.7785   -8.0749   13.5648 C   0  0  0  0  0  0  0  0  0  0  0  0
    4.0896   -7.3957   12.5730 C   0  0  0  0  0  0  0  0  0  0  0  0
    4.2799   -6.0953   12.0506 C   0  0  0  0  0  0  0  0  0  0  0  0
    3.0013   -5.8372   11.7306 C   0  0  0  0  0  0  0  0  0  0  0  0
    2.3881   -7.1277   11.3448 N   0  0  0  0  0  0  0  0  0  0  0  0
    3.2613   -8.4082   11.4852 C   0  0  0  0  0  0  0  0  0  0  0  0
   -2.2384  -14.4507   11.3674 C   0  0  0  0  0  0  0  0  0  0  0  0
   -3.7175  -14.2203   12.5446 C   0  0  0  0  0  0  0  0  0  0  0  0
   -4.1379  -15.2353   13.2501 C   0  0  0  0  0  0  0  0  0  0  0  0
   -5.1217  -15.7967   13.9664 O   0  0  0  0  0  0  0  0  0  0  0  0
   -5.2074  -19.4962   12.3345 H   0  0  0  0  0  0  0  0  0  0  0  0
   -6.5516  -19.2670   11.1551 H   0  0  0  0  0  0  0  0  0  0  0  0
   -6.9685  -19.8547   12.4754 H   0  0  0  0  0  0  0  0  0  0  0  0
   -7.3905  -17.6133   13.1050 H   0  0  0  0  0  0  0  0  0  0  0  0
   -6.5388  -17.3815   11.7037 H   0  0  0  0  0  0  0  0  0  0  0  0
   -1.8421  -16.3712   10.5150 H   0  0  0  0  0  0  0  0  0  0  0  0
   -0.3734  -11.9920   12.1460 H   0  0  0  0  0  0  0  0  0  0  0  0
    3.3253  -10.8138   13.8615 H   0  0  0  0  0  0  0  0  0  0  0  0
    5.2914  -10.2161   14.2314 H   0  0  0  0  0  0  0  0  0  0  0  0
    5.7258   -7.6319   13.8557 H   0  0  0  0  0  0  0  0  0  0  0  0
    4.9412   -5.2847   12.2356 H   0  0  0  0  0  0  0  0  0  0  0  0
    2.5434   -4.8663   11.6132 H   0  0  0  0  0  0  0  0  0  0  0  0
    1.4200   -7.3142   11.1405 H   0  0  0  0  0  0  0  0  0  0  0  0
   -2.8085  -14.4724   10.1354 H   0  0  0  0  0  0  0  0  0  0  0  0
   -4.0933  -13.3591   13.0875 H   0  0  0  0  0  0  0  0  0  0  0  0
  1  2  1  0
  2  3  1  0
  3  4  2  0
  4  5  1  0
  5  6  2  0
  6  7  1  0
  7  8  1  0
  8  9  1  0
  9 10  2  0
  9 11  1  0
 11 12  2  0
 12 13  1  0
 13 14  2  0
 14 15  1  0
 15 16  1  0
 16 17  2  0
 17 18  1  0
 18 19  1  0
  7 20  2  0
 20 21  1  0
 21 22  2  0
 22 23  1  0
 23  3  1  0
 22  5  1  0
 19 11  1  0
 19 15  2  0
  1 24  1  0
  1 25  1  0
  1 26  1  0
  2 27  1  0
  2 28  1  0
  6 29  1  0
  8 30  1  0
 12 31  1  0
 13 32  1  0
 14 33  1  0
 16 34  1  0
 17 35  1  0
 18 36  1  0
 20 37  1  0
 21 38  1  0
M  END
>  <Energy>  (1025) 
1393.4070777846803

>  <compound_id>  (1025) 
76796

>  <target_id>  (1025) 
1

>  <reference_id>  (1025) 
2

>  <inspiration_ids>  (1025) 
[2, 97]

>  <energy_score>  (1025) 
1315.0911165148245

>  <distance_score>  (1025) 
10.765033173946891

>  <path>  (1025) 
/opt/xchem-fragalysis-2/maxwin/BulkDock/SCRATCH/511022/C76796-P2/C76796-P2.minimised.mol

>  <scratch_subdir>  (1025) 
/opt/xchem-fragalysis-2/maxwin/BulkDock/SCRATCH/511022/C76796-P2

>  <fragmenstein_runtime>  (1025) 
18.319220781326294

>  <fragmenstein_outcome>  (1025) 
too moved

>  <fragmenstein_mode>  (1025) 
expansion

>  <fragmenstein_error>  (1025) 


$$$$
C76796-P97
     RDKit          3D

 38 41  0  0  0  0  0  0  0  0999 V2000
   -4.3493  -15.9886   13.4408 C   0  0  0  0  0  0  0  0  0  0  0  0
   -3.8253  -15.3544   12.0719 C   0  0  0  0  0  0  0  0  0  0  0  0
   -2.4188  -15.8714   10.9412 C   0  0  0  0  0  0  0  0  0  0  0  0
   -1.1318  -16.4139   11.1299 N   0  0  0  0  0  0  0  0  0  0  0  0
   -0.3724  -15.2858   11.5953 C   0  0  0  0  0  0  0  0  0  0  0  0
    0.3730  -14.6134   12.6430 C   0  0  0  0  0  0  0  0  0  0  0  0
    0.4297  -13.0832   13.0287 C   0  0  0  0  0  0  0  0  0  0  0  0
    1.3262  -12.1399   13.7713 N   0  0  0  0  0  0  0  0  0  0  0  0
    2.6675  -10.8934   13.1400 C   0  0  0  0  0  0  0  0  0  0  0  0
    2.9497  -10.8498   11.9287 O   0  0  0  0  0  0  0  0  0  0  0  0
    3.6706   -9.3791   14.1299 C   0  0  0  0  0  0  0  0  0  0  0  0
    2.8551   -8.3641   15.5923 C   0  0  0  0  0  0  0  0  0  0  0  0
    2.5243   -7.0069   16.3875 C   0  0  0  0  0  0  0  0  0  0  0  0
    2.7072   -5.9189   15.6034 C   0  0  0  0  0  0  0  0  0  0  0  0
    3.8736   -6.2472   14.8020 C   0  0  0  0  0  0  0  0  0  0  0  0
    4.8798   -5.6097   15.5855 C   0  0  0  0  0  0  0  0  0  0  0  0
    5.9446   -6.4093   15.4851 C   0  0  0  0  0  0  0  0  0  0  0  0
    5.7334   -7.3402   14.0532 N   0  0  0  0  0  0  0  0  0  0  0  0
    4.3155   -7.7213   13.8914 C   0  0  0  0  0  0  0  0  0  0  0  0
    0.1403  -12.2515   12.0776 C   0  0  0  0  0  0  0  0  0  0  0  0
   -0.4355  -12.9120   11.1421 C   0  0  0  0  0  0  0  0  0  0  0  0
   -0.9221  -14.3061   10.9668 C   0  0  0  0  0  0  0  0  0  0  0  0
   -2.0689  -14.8107   10.2288 O   0  0  0  0  0  0  0  0  0  0  0  0
   -4.1291  -15.3170   14.2814 H   0  0  0  0  0  0  0  0  0  0  0  0
   -4.0023  -16.9885   13.7155 H   0  0  0  0  0  0  0  0  0  0  0  0
   -5.4381  -16.0466   13.4209 H   0  0  0  0  0  0  0  0  0  0  0  0
   -3.5487  -14.3877   12.4117 H   0  0  0  0  0  0  0  0  0  0  0  0
   -4.7465  -15.0072   11.6246 H   0  0  0  0  0  0  0  0  0  0  0  0
    1.0121  -15.3545   12.9811 H   0  0  0  0  0  0  0  0  0  0  0  0
    1.2915  -12.1040   14.7436 H   0  0  0  0  0  0  0  0  0  0  0  0
    2.9011   -8.8912   16.7057 H   0  0  0  0  0  0  0  0  0  0  0  0
    2.0357   -7.0295   17.3521 H   0  0  0  0  0  0  0  0  0  0  0  0
    2.5026   -4.9265   15.9992 H   0  0  0  0  0  0  0  0  0  0  0  0
    4.7287   -4.7979   16.2766 H   0  0  0  0  0  0  0  0  0  0  0  0
    6.9165   -6.1581   15.8408 H   0  0  0  0  0  0  0  0  0  0  0  0
    6.4659   -8.0153   13.8943 H   0  0  0  0  0  0  0  0  0  0  0  0
    0.3243  -11.2027   11.9470 H   0  0  0  0  0  0  0  0  0  0  0  0
   -0.7719  -12.0801   10.5236 H   0  0  0  0  0  0  0  0  0  0  0  0
  1  2  1  0
  2  3  1  0
  3  4  2  0
  4  5  1  0
  5  6  2  0
  6  7  1  0
  7  8  1  0
  8  9  1  0
  9 10  2  0
  9 11  1  0
 11 12  2  0
 12 13  1  0
 13 14  2  0
 14 15  1  0
 15 16  1  0
 16 17  2  0
 17 18  1  0
 18 19  1  0
  7 20  2  0
 20 21  1  0
 21 22  2  0
 22 23  1  0
 23  3  1  0
 22  5  1  0
 19 11  1  0
 19 15  2  0
  1 24  1  0
  1 25  1  0
  1 26  1  0
  2 27  1  0
  2 28  1  0
  6 29  1  0
  8 30  1  0
 12 31  1  0
 13 32  1  0
 14 33  1  0
 16 34  1  0
 17 35  1  0
 18 36  1  0
 20 37  1  0
 21 38  1  0
M  END
>  <Energy>  (1026) 
913.11803704375461

>  <compound_id>  (1026) 
76796

>  <target_id>  (1026) 
1

>  <reference_id>  (1026) 
97

>  <inspiration_ids>  (1026) 
[2, 97]

>  <energy_score>  (1026) 
834.8020757739057

>  <distance_score>  (1026) 
11.2748491578224

>  <path>  (1026) 
/opt/xchem-fragalysis-2/maxwin/BulkDock/SCRATCH/511022/C76796-P97/C76796-P97.minimised.mol

>  <scratch_subdir>  (1026) 
/opt/xchem-fragalysis-2/maxwin/BulkDock/SCRATCH/511022/C76796-P97

>  <fragmenstein_runtime>  (1026) 
20.577044010162354

>  <fragmenstein_outcome>  (1026) 
too moved

>  <fragmenstein_mode>  (1026) 
expansion

>  <fragmenstein_error>  (1026) 


$$$$
C76798-P2
     RDKit          3D

 38 41  0  0  0  0  0  0  0  0999 V2000
   -5.6935  -17.9409    8.8612 C   0  0  0  0  0  0  0  0  0  0  0  0
   -3.5282  -17.9536    8.8784 C   0  0  0  0  0  0  0  0  0  0  0  0
   -1.6876  -17.6798    9.6858 C   0  0  0  0  0  0  0  0  0  0  0  0
   -0.4710  -16.8949    9.3313 N   0  0  0  0  0  0  0  0  0  0  0  0
    1.0786  -17.1648   10.1342 C   0  0  0  0  0  0  0  0  0  0  0  0
    2.8114  -16.6365   10.3967 C   0  0  0  0  0  0  0  0  0  0  0  0
    4.2944  -16.7905   11.4881 C   0  0  0  0  0  0  0  0  0  0  0  0
    5.1823  -15.4811   12.7596 N   0  0  0  0  0  0  0  0  0  0  0  0
    6.2860  -13.8319   12.4796 C   0  0  0  0  0  0  0  0  0  0  0  0
    6.5098  -13.7107   11.3566 O   0  0  0  0  0  0  0  0  0  0  0  0
    7.0084  -12.0519   13.5813 C   0  0  0  0  0  0  0  0  0  0  0  0
    8.6315  -11.1506   14.1612 C   0  0  0  0  0  0  0  0  0  0  0  0
   10.3668  -11.0879   14.1939 C   0  0  0  0  0  0  0  0  0  0  0  0
   10.4980  -10.1121   13.1157 C   0  0  0  0  0  0  0  0  0  0  0  0
   11.8089   -8.9834   11.9850 C   0  0  0  0  0  0  0  0  0  0  0  0
   11.4434   -7.0381   12.5142 C   0  0  0  0  0  0  0  0  0  0  0  0
   10.2141   -7.5041   14.2953 N   0  0  0  0  0  0  0  0  0  0  0  0
    9.4580   -9.2543   14.3845 C   0  0  0  0  0  0  0  0  0  0  0  0
    7.8305  -10.2850   14.1209 C   0  0  0  0  0  0  0  0  0  0  0  0
    3.5894  -17.9911   12.0281 C   0  0  0  0  0  0  0  0  0  0  0  0
    2.0093  -18.7121   11.7375 C   0  0  0  0  0  0  0  0  0  0  0  0
    0.7632  -18.2697   10.9099 C   0  0  0  0  0  0  0  0  0  0  0  0
   -0.8107  -18.7032   10.6720 O   0  0  0  0  0  0  0  0  0  0  0  0
   -6.4095  -17.0981    8.8374 H   0  0  0  0  0  0  0  0  0  0  0  0
   -6.2034  -17.9589    7.9294 H   0  0  0  0  0  0  0  0  0  0  0  0
   -6.3876  -18.6582    9.3612 H   0  0  0  0  0  0  0  0  0  0  0  0
   -3.2715  -19.0098    8.6440 H   0  0  0  0  0  0  0  0  0  0  0  0
   -3.3018  -17.2765    8.0364 H   0  0  0  0  0  0  0  0  0  0  0  0
    2.9421  -15.8234    9.6569 H   0  0  0  0  0  0  0  0  0  0  0  0
    5.0901  -15.6135   13.7000 H   0  0  0  0  0  0  0  0  0  0  0  0
    9.1665  -11.1861   13.2066 H   0  0  0  0  0  0  0  0  0  0  0  0
   10.9416  -12.0139   14.1261 H   0  0  0  0  0  0  0  0  0  0  0  0
   11.9967   -9.2448   10.9304 H   0  0  0  0  0  0  0  0  0  0  0  0
   11.6536   -5.9897   12.1378 H   0  0  0  0  0  0  0  0  0  0  0  0
   10.3681   -6.9502   15.1634 H   0  0  0  0  0  0  0  0  0  0  0  0
    7.2578   -9.4146   13.6679 H   0  0  0  0  0  0  0  0  0  0  0  0
    4.0646  -18.4806   12.8901 H   0  0  0  0  0  0  0  0  0  0  0  0
    1.8323  -19.5719   12.3956 H   0  0  0  0  0  0  0  0  0  0  0  0
  1  2  1  0
  2  3  1  0
  3  4  2  0
  4  5  1  0
  5  6  2  0
  6  7  1  0
  7  8  1  0
  8  9  1  0
  9 10  2  0
  9 11  1  0
 11 12  2  0
 12 13  1  0
 13 14  2  0
 14 15  1  0
 15 16  2  0
 16 17  1  0
 17 18  1  0
 18 19  2  0
  7 20  2  0
 20 21  1  0
 21 22  2  0
 22 23  1  0
 23  3  1  0
 22  5  1  0
 19 11  1  0
 18 14  1  0
  1 24  1  0
  1 25  1  0
  1 26  1  0
  2 27  1  0
  2 28  1  0
  6 29  1  0
  8 30  1  0
 12 31  1  0
 13 32  1  0
 15 33  1  0
 16 34  1  0
 17 35  1  0
 19 36  1  0
 20 37  1  0
 21 38  1  0
M  END
>  <Energy>  (1027) 
2769.6900707277368

>  <compound_id>  (1027) 
76798

>  <target_id>  (1027) 
1

>  <reference_id>  (1027) 
2

>  <inspiration_ids>  (1027) 
[2, 97]

>  <energy_score>  (1027) 
2694.2461565917274

>  <distance_score>  (1027) 
10.151445157052326

>  <path>  (1027) 
/opt/xchem-fragalysis-2/maxwin/BulkDock/SCRATCH/511022/C76798-P2/C76798-P2.minimised.mol

>  <scratch_subdir>  (1027) 
/opt/xchem-fragalysis-2/maxwin/BulkDock/SCRATCH/511022/C76798-P2

>  <fragmenstein_runtime>  (1027) 
9.49486756324768

>  <fragmenstein_outcome>  (1027) 
too moved

>  <fragmenstein_mode>  (1027) 
expansion

>  <fragmenstein_error>  (1027) 


$$$$
C76798-P97
     RDKit          3D

 38 41  0  0  0  0  0  0  0  0999 V2000
   -4.5393  -16.9732   15.1276 C   0  0  0  0  0  0  0  0  0  0  0  0
   -4.9149  -17.0855   16.6097 C   0  0  0  0  0  0  0  0  0  0  0  0
   -4.0158  -16.2139   17.4081 C   0  0  0  0  0  0  0  0  0  0  0  0
   -3.6011  -15.0356   17.0073 N   0  0  0  0  0  0  0  0  0  0  0  0
   -2.3772  -14.9612   17.5935 C   0  0  0  0  0  0  0  0  0  0  0  0
   -1.2344  -14.2625   17.1577 C   0  0  0  0  0  0  0  0  0  0  0  0
    0.1269  -14.4136   17.5298 C   0  0  0  0  0  0  0  0  0  0  0  0
    1.3524  -13.5723   17.2482 N   0  0  0  0  0  0  0  0  0  0  0  0
    1.8845  -12.6744   15.7292 C   0  0  0  0  0  0  0  0  0  0  0  0
    1.3777  -12.6586   14.5762 O   0  0  0  0  0  0  0  0  0  0  0  0
    3.4678  -11.3639   15.9602 C   0  0  0  0  0  0  0  0  0  0  0  0
    3.7757  -10.4129   14.4707 C   0  0  0  0  0  0  0  0  0  0  0  0
    3.6332   -8.5261   14.3482 C   0  0  0  0  0  0  0  0  0  0  0  0
    2.9706   -7.7538   15.9402 C   0  0  0  0  0  0  0  0  0  0  0  0
    2.8987   -6.3666   16.4221 C   0  0  0  0  0  0  0  0  0  0  0  0
    2.5687   -6.3702   17.7606 C   0  0  0  0  0  0  0  0  0  0  0  0
    2.4301   -7.6549   18.2503 N   0  0  0  0  0  0  0  0  0  0  0  0
    2.6712   -8.5970   17.2749 C   0  0  0  0  0  0  0  0  0  0  0  0
    3.1894  -10.2241   17.2606 C   0  0  0  0  0  0  0  0  0  0  0  0
    0.1184  -15.1219   18.7892 C   0  0  0  0  0  0  0  0  0  0  0  0
   -1.0173  -15.9204   19.3184 C   0  0  0  0  0  0  0  0  0  0  0  0
   -2.2159  -15.8853   18.5911 C   0  0  0  0  0  0  0  0  0  0  0  0
   -3.3086  -16.7375   18.4880 O   0  0  0  0  0  0  0  0  0  0  0  0
   -5.2493  -17.4709   14.4648 H   0  0  0  0  0  0  0  0  0  0  0  0
   -3.5615  -17.4321   14.9601 H   0  0  0  0  0  0  0  0  0  0  0  0
   -4.4891  -15.9301   14.7959 H   0  0  0  0  0  0  0  0  0  0  0  0
   -5.9492  -16.7635   16.7670 H   0  0  0  0  0  0  0  0  0  0  0  0
   -4.7993  -18.1147   16.9597 H   0  0  0  0  0  0  0  0  0  0  0  0
   -1.6149  -13.6905   16.3735 H   0  0  0  0  0  0  0  0  0  0  0  0
    2.0205  -13.4367   17.9814 H   0  0  0  0  0  0  0  0  0  0  0  0
    4.5542  -10.8177   13.8169 H   0  0  0  0  0  0  0  0  0  0  0  0
    4.2950   -7.9865   13.6656 H   0  0  0  0  0  0  0  0  0  0  0  0
    3.0713   -5.4828   15.8251 H   0  0  0  0  0  0  0  0  0  0  0  0
    2.4323   -5.5381   18.4393 H   0  0  0  0  0  0  0  0  0  0  0  0
    2.2756   -7.8759   19.2241 H   0  0  0  0  0  0  0  0  0  0  0  0
    3.3212  -10.6092   18.2830 H   0  0  0  0  0  0  0  0  0  0  0  0
    1.0572  -15.1910   19.3409 H   0  0  0  0  0  0  0  0  0  0  0  0
   -0.8706  -16.6004   20.1490 H   0  0  0  0  0  0  0  0  0  0  0  0
  1  2  1  0
  2  3  1  0
  3  4  2  0
  4  5  1  0
  5  6  2  0
  6  7  1  0
  7  8  1  0
  8  9  1  0
  9 10  2  0
  9 11  1  0
 11 12  2  0
 12 13  1  0
 13 14  2  0
 14 15  1  0
 15 16  2  0
 16 17  1  0
 17 18  1  0
 18 19  2  0
  7 20  2  0
 20 21  1  0
 21 22  2  0
 22 23  1  0
 23  3  1  0
 22  5  1  0
 19 11  1  0
 18 14  1  0
  1 24  1  0
  1 25  1  0
  1 26  1  0
  2 27  1  0
  2 28  1  0
  6 29  1  0
  8 30  1  0
 12 31  1  0
 13 32  1  0
 15 33  1  0
 16 34  1  0
 17 35  1  0
 19 36  1  0
 20 37  1  0
 21 38  1  0
M  END
>  <Energy>  (1028) 
506.72180289817697

>  <compound_id>  (1028) 
76798

>  <target_id>  (1028) 
1

>  <reference_id>  (1028) 
97

>  <inspiration_ids>  (1028) 
[2, 97]

>  <energy_score>  (1028) 
431.27788876213623

>  <distance_score>  (1028) 
13.011641484582622

>  <path>  (1028) 
/opt/xchem-fragalysis-2/maxwin/BulkDock/SCRATCH/511022/C76798-P97/C76798-P97.minimised.mol

>  <scratch_subdir>  (1028) 
/opt/xchem-fragalysis-2/maxwin/BulkDock/SCRATCH/511022/C76798-P97

>  <fragmenstein_runtime>  (1028) 
15.803058624267578

>  <fragmenstein_outcome>  (1028) 
too moved

>  <fragmenstein_mode>  (1028) 
expansion

>  <fragmenstein_error>  (1028) 


$$$$
C14454-P2
     RDKit          3D

 39 43  0  0  0  0  0  0  0  0999 V2000
   -0.3620  -12.0200   12.1633 O   0  0  0  0  0  0  0  0  0  0  0  0
    0.1697  -12.8510   11.4657 C   0  0  0  0  0  0  0  0  0  0  0  0
   -0.5715  -14.3420   10.8426 N   0  0  0  0  0  0  0  0  0  0  0  0
   -2.2616  -14.9498   10.9349 C   0  0  0  0  0  0  0  0  0  0  0  0
   -3.5758  -14.6358   11.7912 C   0  0  0  0  0  0  0  0  0  0  0  0
   -4.8479  -13.9056   11.4224 C   0  0  0  0  0  0  0  0  0  0  0  0
   -5.1088  -13.6792   10.0610 C   0  0  0  0  0  0  0  0  0  0  0  0
   -6.3705  -13.5521    9.5459 O   0  0  0  0  0  0  0  0  0  0  0  0
   -6.2641  -14.4133    8.4563 C   0  0  0  0  0  0  0  0  0  0  0  0
   -7.1984  -16.2327    8.5686 C   0  0  0  0  0  0  0  0  0  0  0  0
   -7.8785  -17.5626    7.8516 C   0  0  0  0  0  0  0  0  0  0  0  0
   -6.6098  -17.7467    8.4365 C   0  0  0  0  0  0  0  0  0  0  0  0
   -4.9944  -14.2354    7.9398 N   0  0  0  0  0  0  0  0  0  0  0  0
   -4.2130  -14.1721    9.0558 C   0  0  0  0  0  0  0  0  0  0  0  0
   -2.8426  -14.9592    9.5116 C   0  0  0  0  0  0  0  0  0  0  0  0
    1.8827  -12.2532   10.9726 C   0  0  0  0  0  0  0  0  0  0  0  0
    2.8558  -12.7219    9.9388 C   0  0  0  0  0  0  0  0  0  0  0  0
    3.3615  -11.7138    9.1996 C   0  0  0  0  0  0  0  0  0  0  0  0
    3.7312  -10.6410    9.8899 C   0  0  0  0  0  0  0  0  0  0  0  0
    3.8417  -11.1235   11.1630 C   0  0  0  0  0  0  0  0  0  0  0  0
    5.1197  -11.1206   12.5086 N   0  0  0  0  0  0  0  0  0  0  0  0
    4.7871  -10.5305   13.6315 C   0  0  0  0  0  0  0  0  0  0  0  0
    3.5232  -10.4786   13.3006 C   0  0  0  0  0  0  0  0  0  0  0  0
    2.5948  -10.9282   11.6985 C   0  0  0  0  0  0  0  0  0  0  0  0
    0.1228  -14.8874   10.3600 H   0  0  0  0  0  0  0  0  0  0  0  0
   -3.6748  -14.5678   12.8738 H   0  0  0  0  0  0  0  0  0  0  0  0
   -5.4926  -13.5362   12.2038 H   0  0  0  0  0  0  0  0  0  0  0  0
   -7.8366  -15.9207    9.2431 H   0  0  0  0  0  0  0  0  0  0  0  0
   -8.7319  -18.1373    8.2232 H   0  0  0  0  0  0  0  0  0  0  0  0
   -8.0128  -17.9829    6.8586 H   0  0  0  0  0  0  0  0  0  0  0  0
   -6.9578  -18.7200    8.9793 H   0  0  0  0  0  0  0  0  0  0  0  0
   -6.1681  -18.0757    9.3181 H   0  0  0  0  0  0  0  0  0  0  0  0
   -2.3942  -15.5468    8.7200 H   0  0  0  0  0  0  0  0  0  0  0  0
    2.9950  -13.6978    9.4880 H   0  0  0  0  0  0  0  0  0  0  0  0
    3.4586  -11.6645    8.1466 H   0  0  0  0  0  0  0  0  0  0  0  0
    4.4878  -10.1200    9.3496 H   0  0  0  0  0  0  0  0  0  0  0  0
    5.4399  -12.0007   12.8974 H   0  0  0  0  0  0  0  0  0  0  0  0
    5.3046  -10.6705   14.5133 H   0  0  0  0  0  0  0  0  0  0  0  0
    3.0496  -10.4602   14.2061 H   0  0  0  0  0  0  0  0  0  0  0  0
  1  2  2  0
  2  3  1  0
  3  4  1  0
  4  5  2  0
  5  6  1  0
  6  7  2  0
  7  8  1  0
  8  9  1  0
  9 10  1  0
 10 11  1  0
 11 12  1  0
  9 13  2  0
 13 14  1  0
 14 15  2  0
  2 16  1  0
 16 17  2  0
 17 18  1  0
 18 19  2  0
 19 20  1  0
 20 21  1  0
 21 22  1  0
 22 23  2  0
 23 24  1  0
 15  4  1  0
 24 16  1  0
 14  7  1  0
 24 20  2  0
 12 10  1  0
  3 25  1  0
  5 26  1  0
  6 27  1  0
 10 28  1  0
 11 29  1  0
 11 30  1  0
 12 31  1  0
 12 32  1  0
 15 33  1  0
 17 34  1  0
 18 35  1  0
 19 36  1  0
 21 37  1  0
 22 38  1  0
 23 39  1  0
M  END
>  <Energy>  (1029) 
834.65677106499527

>  <compound_id>  (1029) 
14454

>  <target_id>  (1029) 
1

>  <reference_id>  (1029) 
2

>  <inspiration_ids>  (1029) 
[2, 97]

>  <energy_score>  (1029) 
757.8882294124385

>  <distance_score>  (1029) 
12.291610872115408

>  <path>  (1029) 
/opt/xchem-fragalysis-2/maxwin/BulkDock/SCRATCH/511022/C14454-P2/C14454-P2.minimised.mol

>  <scratch_subdir>  (1029) 
/opt/xchem-fragalysis-2/maxwin/BulkDock/SCRATCH/511022/C14454-P2

>  <fragmenstein_runtime>  (1029) 
11.789438486099243

>  <fragmenstein_outcome>  (1029) 
too moved

>  <fragmenstein_mode>  (1029) 
expansion

>  <fragmenstein_error>  (1029) 


$$$$
C14454-P97
     RDKit          3D

 39 43  0  0  0  0  0  0  0  0999 V2000
    4.0678  -10.8783   14.2810 O   0  0  0  0  0  0  0  0  0  0  0  0
    3.7266  -10.1276   13.3679 C   0  0  0  0  0  0  0  0  0  0  0  0
    2.4745  -10.5235   11.9004 N   0  0  0  0  0  0  0  0  0  0  0  0
    1.4236  -11.8872   11.6153 C   0  0  0  0  0  0  0  0  0  0  0  0
    0.6298  -12.3789   12.8678 C   0  0  0  0  0  0  0  0  0  0  0  0
    0.2752  -13.7428   13.1225 C   0  0  0  0  0  0  0  0  0  0  0  0
    0.3145  -14.5461   12.0892 C   0  0  0  0  0  0  0  0  0  0  0  0
    0.2074  -15.8506   11.8896 O   0  0  0  0  0  0  0  0  0  0  0  0
   -0.7177  -15.9263   10.9021 C   0  0  0  0  0  0  0  0  0  0  0  0
   -0.7384  -17.2187   10.0352 C   0  0  0  0  0  0  0  0  0  0  0  0
   -1.8965  -17.7275    9.2550 C   0  0  0  0  0  0  0  0  0  0  0  0
   -1.5037  -18.3853   10.5560 C   0  0  0  0  0  0  0  0  0  0  0  0
   -1.3026  -14.7357   10.7025 N   0  0  0  0  0  0  0  0  0  0  0  0
   -0.3596  -13.7758   11.2264 C   0  0  0  0  0  0  0  0  0  0  0  0
    0.1753  -12.2018   11.2215 C   0  0  0  0  0  0  0  0  0  0  0  0
    4.4575   -8.2192   13.7156 C   0  0  0  0  0  0  0  0  0  0  0  0
    5.8990   -7.7934   14.0773 C   0  0  0  0  0  0  0  0  0  0  0  0
    6.3835   -6.8846   15.5083 C   0  0  0  0  0  0  0  0  0  0  0  0
    5.5422   -6.3343   16.6441 C   0  0  0  0  0  0  0  0  0  0  0  0
    4.1295   -6.3264   16.3026 C   0  0  0  0  0  0  0  0  0  0  0  0
    3.1109   -5.6125   16.8883 N   0  0  0  0  0  0  0  0  0  0  0  0
    2.5009   -4.8867   15.9064 C   0  0  0  0  0  0  0  0  0  0  0  0
    2.8338   -5.4673   14.7061 C   0  0  0  0  0  0  0  0  0  0  0  0
    3.6663   -6.9310   14.8912 C   0  0  0  0  0  0  0  0  0  0  0  0
    2.3168   -9.7034   11.3447 H   0  0  0  0  0  0  0  0  0  0  0  0
    1.0214  -12.1019   13.8472 H   0  0  0  0  0  0  0  0  0  0  0  0
   -0.2611  -14.0547   13.9567 H   0  0  0  0  0  0  0  0  0  0  0  0
    0.2463  -17.4433    9.6338 H   0  0  0  0  0  0  0  0  0  0  0  0
   -1.7022  -18.2843    8.3456 H   0  0  0  0  0  0  0  0  0  0  0  0
   -2.7482  -17.0740    9.1842 H   0  0  0  0  0  0  0  0  0  0  0  0
   -2.1217  -18.2532   11.4327 H   0  0  0  0  0  0  0  0  0  0  0  0
   -0.9690  -19.3281   10.5510 H   0  0  0  0  0  0  0  0  0  0  0  0
   -0.4101  -11.3653   10.8747 H   0  0  0  0  0  0  0  0  0  0  0  0
    6.6810   -7.9791   13.3682 H   0  0  0  0  0  0  0  0  0  0  0  0
    7.4304   -6.6438   15.5627 H   0  0  0  0  0  0  0  0  0  0  0  0
    5.9398   -5.8520   17.5208 H   0  0  0  0  0  0  0  0  0  0  0  0
    3.1485   -5.2982   17.8466 H   0  0  0  0  0  0  0  0  0  0  0  0
    1.9195   -4.0052   16.1398 H   0  0  0  0  0  0  0  0  0  0  0  0
    2.5499   -5.0624   13.7364 H   0  0  0  0  0  0  0  0  0  0  0  0
  1  2  2  0
  2  3  1  0
  3  4  1  0
  4  5  2  0
  5  6  1  0
  6  7  2  0
  7  8  1  0
  8  9  1  0
  9 10  1  0
 10 11  1  0
 11 12  1  0
  9 13  2  0
 13 14  1  0
 14 15  2  0
  2 16  1  0
 16 17  2  0
 17 18  1  0
 18 19  2  0
 19 20  1  0
 20 21  1  0
 21 22  1  0
 22 23  2  0
 23 24  1  0
 15  4  1  0
 24 16  1  0
 14  7  1  0
 24 20  2  0
 12 10  1  0
  3 25  1  0
  5 26  1  0
  6 27  1  0
 10 28  1  0
 11 29  1  0
 11 30  1  0
 12 31  1  0
 12 32  1  0
 15 33  1  0
 17 34  1  0
 18 35  1  0
 19 36  1  0
 21 37  1  0
 22 38  1  0
 23 39  1  0
M  END
>  <Energy>  (1030) 
764.02788414088275

>  <compound_id>  (1030) 
14454

>  <target_id>  (1030) 
1

>  <reference_id>  (1030) 
97

>  <inspiration_ids>  (1030) 
[2, 97]

>  <energy_score>  (1030) 
687.2593424883296

>  <distance_score>  (1030) 
11.499944361446593

>  <path>  (1030) 
/opt/xchem-fragalysis-2/maxwin/BulkDock/SCRATCH/511022/C14454-P97/C14454-P97.minimised.mol

>  <scratch_subdir>  (1030) 
/opt/xchem-fragalysis-2/maxwin/BulkDock/SCRATCH/511022/C14454-P97

>  <fragmenstein_runtime>  (1030) 
13.985488414764404

>  <fragmenstein_outcome>  (1030) 
too moved

>  <fragmenstein_mode>  (1030) 
expansion

>  <fragmenstein_error>  (1030) 


$$$$
C76799-P2
     RDKit          3D

 36 39  0  0  0  0  0  0  0  0999 V2000
   -6.7810  -16.1844    8.8718 N   0  0  0  0  0  0  0  0  0  0  0  0
   -5.8013  -17.6862    8.7593 C   0  0  0  0  0  0  0  0  0  0  0  0
   -6.2841  -18.7614    8.8810 O   0  0  0  0  0  0  0  0  0  0  0  0
   -3.8056  -17.1843    8.5542 C   0  0  0  0  0  0  0  0  0  0  0  0
   -3.2579  -15.7285    8.7312 N   0  0  0  0  0  0  0  0  0  0  0  0
   -2.1132  -15.4385    9.9912 C   0  0  0  0  0  0  0  0  0  0  0  0
   -1.0672  -14.2688   10.9639 C   0  0  0  0  0  0  0  0  0  0  0  0
   -0.0451  -13.2092   11.9214 C   0  0  0  0  0  0  0  0  0  0  0  0
    0.9456  -12.3735   13.3545 N   0  0  0  0  0  0  0  0  0  0  0  0
    2.4883  -11.0793   13.3246 C   0  0  0  0  0  0  0  0  0  0  0  0
    2.8459  -10.6044   12.2204 O   0  0  0  0  0  0  0  0  0  0  0  0
    3.8968  -10.5415   14.8410 C   0  0  0  0  0  0  0  0  0  0  0  0
    3.7632  -10.2633   16.7781 C   0  0  0  0  0  0  0  0  0  0  0  0
    5.0031   -9.7378   18.1919 C   0  0  0  0  0  0  0  0  0  0  0  0
    6.7880   -9.8548   17.6668 C   0  0  0  0  0  0  0  0  0  0  0  0
    7.2840   -9.9123   15.7354 C   0  0  0  0  0  0  0  0  0  0  0  0
    8.4788   -9.8994   14.9595 C   0  0  0  0  0  0  0  0  0  0  0  0
    8.1009  -10.2751   13.7012 C   0  0  0  0  0  0  0  0  0  0  0  0
    6.7480  -10.6306   13.5278 N   0  0  0  0  0  0  0  0  0  0  0  0
    5.8014  -10.3219   14.5204 C   0  0  0  0  0  0  0  0  0  0  0  0
    0.2903  -14.7855   11.8280 C   0  0  0  0  0  0  0  0  0  0  0  0
   -0.1981  -16.3649   11.0298 C   0  0  0  0  0  0  0  0  0  0  0  0
   -1.5087  -16.6623   10.1516 C   0  0  0  0  0  0  0  0  0  0  0  0
   -2.4865  -17.7855    9.5074 O   0  0  0  0  0  0  0  0  0  0  0  0
   -6.1761  -15.3623    8.6146 H   0  0  0  0  0  0  0  0  0  0  0  0
   -6.1367  -15.3544    8.8517 H   0  0  0  0  0  0  0  0  0  0  0  0
   -1.7238  -14.7472   11.7182 H   0  0  0  0  0  0  0  0  0  0  0  0
    0.8379  -12.7269   14.2915 H   0  0  0  0  0  0  0  0  0  0  0  0
    2.8213   -9.9847   17.2405 H   0  0  0  0  0  0  0  0  0  0  0  0
    4.6813   -9.6611   19.2253 H   0  0  0  0  0  0  0  0  0  0  0  0
    7.6094   -9.9179   18.3955 H   0  0  0  0  0  0  0  0  0  0  0  0
    9.4902   -9.7944   15.3215 H   0  0  0  0  0  0  0  0  0  0  0  0
    8.8053  -10.5966   12.9493 H   0  0  0  0  0  0  0  0  0  0  0  0
    6.4652  -11.3237   12.8814 H   0  0  0  0  0  0  0  0  0  0  0  0
    0.9862  -15.0110   12.6004 H   0  0  0  0  0  0  0  0  0  0  0  0
    0.4060  -17.2291   11.3258 H   0  0  0  0  0  0  0  0  0  0  0  0
  1  2  1  0
  2  3  2  0
  2  4  1  0
  4  5  2  0
  5  6  1  0
  6  7  2  0
  7  8  1  0
  8  9  1  0
  9 10  1  0
 10 11  2  0
 10 12  1  0
 12 13  2  0
 13 14  1  0
 14 15  2  0
 15 16  1  0
 16 17  1  0
 17 18  2  0
 18 19  1  0
 19 20  1  0
  8 21  2  0
 21 22  1  0
 22 23  2  0
 23 24  1  0
 24  4  1  0
 23  6  1  0
 20 12  1  0
 20 16  2  0
  1 25  1  0
  1 26  1  0
  7 27  1  0
  9 28  1  0
 13 29  1  0
 14 30  1  0
 15 31  1  0
 17 32  1  0
 18 33  1  0
 19 34  1  0
 21 35  1  0
 22 36  1  0
M  END
>  <Energy>  (1031) 
1826.5324358182695

>  <compound_id>  (1031) 
76799

>  <target_id>  (1031) 
1

>  <reference_id>  (1031) 
2

>  <inspiration_ids>  (1031) 
[2, 97]

>  <energy_score>  (1031) 
1709.952447268798

>  <distance_score>  (1031) 
10.327932941001931

>  <path>  (1031) 
/opt/xchem-fragalysis-2/maxwin/BulkDock/SCRATCH/511022/C76799-P2/C76799-P2.minimised.mol

>  <scratch_subdir>  (1031) 
/opt/xchem-fragalysis-2/maxwin/BulkDock/SCRATCH/511022/C76799-P2

>  <fragmenstein_runtime>  (1031) 
10.868396520614624

>  <fragmenstein_outcome>  (1031) 
too moved

>  <fragmenstein_mode>  (1031) 
expansion

>  <fragmenstein_error>  (1031) 


$$$$
C76799-P97
     RDKit          3D

 36 39  0  0  0  0  0  0  0  0999 V2000
   -7.0599  -21.2518   12.7103 N   0  0  0  0  0  0  0  0  0  0  0  0
   -6.5753  -19.6993   12.1467 C   0  0  0  0  0  0  0  0  0  0  0  0
   -6.8507  -19.2988   11.0744 O   0  0  0  0  0  0  0  0  0  0  0  0
   -5.7385  -18.3906   13.0946 C   0  0  0  0  0  0  0  0  0  0  0  0
   -5.8351  -17.1113   12.7113 N   0  0  0  0  0  0  0  0  0  0  0  0
   -4.9214  -16.1902   13.3243 C   0  0  0  0  0  0  0  0  0  0  0  0
   -4.0935  -14.8807   12.8538 C   0  0  0  0  0  0  0  0  0  0  0  0
   -3.0266  -14.1474   13.6376 C   0  0  0  0  0  0  0  0  0  0  0  0
   -1.0158  -13.5912   13.8833 N   0  0  0  0  0  0  0  0  0  0  0  0
    0.1515  -12.1916   13.0507 C   0  0  0  0  0  0  0  0  0  0  0  0
   -0.3544  -11.5843   12.1302 O   0  0  0  0  0  0  0  0  0  0  0  0
    2.0835  -11.2915   13.5348 C   0  0  0  0  0  0  0  0  0  0  0  0
    3.5936  -11.1617   14.6577 C   0  0  0  0  0  0  0  0  0  0  0  0
    4.9867  -11.7547   14.3152 C   0  0  0  0  0  0  0  0  0  0  0  0
    5.8832  -11.0738   13.6503 C   0  0  0  0  0  0  0  0  0  0  0  0
    5.1734  -10.0184   13.9750 C   0  0  0  0  0  0  0  0  0  0  0  0
    5.8147   -8.3240   14.0557 C   0  0  0  0  0  0  0  0  0  0  0  0
    4.8038   -7.6282   13.5675 C   0  0  0  0  0  0  0  0  0  0  0  0
    3.9899   -8.6817   13.8303 N   0  0  0  0  0  0  0  0  0  0  0  0
    3.7045  -10.2969   13.3493 C   0  0  0  0  0  0  0  0  0  0  0  0
   -3.2935  -15.0044   15.0749 C   0  0  0  0  0  0  0  0  0  0  0  0
   -3.9564  -16.2584   15.4562 C   0  0  0  0  0  0  0  0  0  0  0  0
   -4.5822  -16.9117   14.4344 C   0  0  0  0  0  0  0  0  0  0  0  0
   -4.8887  -18.2935   14.2286 O   0  0  0  0  0  0  0  0  0  0  0  0
   -6.6235  -21.4255   13.5919 H   0  0  0  0  0  0  0  0  0  0  0  0
   -6.8164  -21.3347   13.6828 H   0  0  0  0  0  0  0  0  0  0  0  0
   -4.0519  -14.8428   11.7871 H   0  0  0  0  0  0  0  0  0  0  0  0
   -0.5498  -13.9566   14.6600 H   0  0  0  0  0  0  0  0  0  0  0  0
    3.5332  -11.5382   15.7217 H   0  0  0  0  0  0  0  0  0  0  0  0
    5.2060  -12.7874   14.2326 H   0  0  0  0  0  0  0  0  0  0  0  0
    6.8977  -11.2635   13.3930 H   0  0  0  0  0  0  0  0  0  0  0  0
    6.7326   -8.0507   14.4703 H   0  0  0  0  0  0  0  0  0  0  0  0
    4.5697   -6.5857   13.4761 H   0  0  0  0  0  0  0  0  0  0  0  0
    3.1848   -8.5562   14.3640 H   0  0  0  0  0  0  0  0  0  0  0  0
   -2.6272  -14.7080   15.9096 H   0  0  0  0  0  0  0  0  0  0  0  0
   -3.7769  -16.7150   16.4203 H   0  0  0  0  0  0  0  0  0  0  0  0
  1  2  1  0
  2  3  2  0
  2  4  1  0
  4  5  2  0
  5  6  1  0
  6  7  2  0
  7  8  1  0
  8  9  1  0
  9 10  1  0
 10 11  2  0
 10 12  1  0
 12 13  2  0
 13 14  1  0
 14 15  2  0
 15 16  1  0
 16 17  1  0
 17 18  2  0
 18 19  1  0
 19 20  1  0
  8 21  2  0
 21 22  1  0
 22 23  2  0
 23 24  1  0
 24  4  1  0
 23  6  1  0
 20 12  1  0
 20 16  2  0
  1 25  1  0
  1 26  1  0
  7 27  1  0
  9 28  1  0
 13 29  1  0
 14 30  1  0
 15 31  1  0
 17 32  1  0
 18 33  1  0
 19 34  1  0
 21 35  1  0
 22 36  1  0
M  END
>  <Energy>  (1032) 
1594.4237566180777

>  <compound_id>  (1032) 
76799

>  <target_id>  (1032) 
1

>  <reference_id>  (1032) 
97

>  <inspiration_ids>  (1032) 
[2, 97]

>  <energy_score>  (1032) 
1477.8437680686052

>  <distance_score>  (1032) 
10.700051801005554

>  <path>  (1032) 
/opt/xchem-fragalysis-2/maxwin/BulkDock/SCRATCH/511022/C76799-P97/C76799-P97.minimised.mol

>  <scratch_subdir>  (1032) 
/opt/xchem-fragalysis-2/maxwin/BulkDock/SCRATCH/511022/C76799-P97

>  <fragmenstein_runtime>  (1032) 
15.65298867225647

>  <fragmenstein_outcome>  (1032) 
too moved

>  <fragmenstein_mode>  (1032) 
expansion

>  <fragmenstein_error>  (1032) 


$$$$
C76800-P2
     RDKit          3D

 39 42  0  0  0  0  0  0  0  0999 V2000
   -7.7296  -20.5331   11.1230 C   0  0  0  0  0  0  0  0  0  0  0  0
   -7.2295  -19.8096   12.2383 O   0  0  0  0  0  0  0  0  0  0  0  0
   -6.1381  -18.9375   12.1160 C   0  0  0  0  0  0  0  0  0  0  0  0
   -5.8154  -17.4835   12.8273 C   0  0  0  0  0  0  0  0  0  0  0  0
   -5.7040  -16.2597   12.2381 N   0  0  0  0  0  0  0  0  0  0  0  0
   -4.9226  -15.4390   12.9925 C   0  0  0  0  0  0  0  0  0  0  0  0
   -3.9552  -14.4947   12.6161 C   0  0  0  0  0  0  0  0  0  0  0  0
   -3.0673  -13.9599   13.6217 C   0  0  0  0  0  0  0  0  0  0  0  0
   -1.0468  -13.4829   13.8622 N   0  0  0  0  0  0  0  0  0  0  0  0
    0.1361  -12.0470   13.1071 C   0  0  0  0  0  0  0  0  0  0  0  0
   -0.4125  -11.3921   12.2547 O   0  0  0  0  0  0  0  0  0  0  0  0
    2.1094  -11.1354   13.5665 C   0  0  0  0  0  0  0  0  0  0  0  0
    2.9986   -9.8845   14.7412 C   0  0  0  0  0  0  0  0  0  0  0  0
    2.8032   -8.1910   15.7790 C   0  0  0  0  0  0  0  0  0  0  0  0
    3.3464   -7.0551   15.2873 C   0  0  0  0  0  0  0  0  0  0  0  0
    3.9617   -8.1105   14.1383 C   0  0  0  0  0  0  0  0  0  0  0  0
    5.2329   -7.6819   13.6564 C   0  0  0  0  0  0  0  0  0  0  0  0
    4.5348   -8.7397   13.3402 C   0  0  0  0  0  0  0  0  0  0  0  0
    4.9344  -10.1415   13.7083 N   0  0  0  0  0  0  0  0  0  0  0  0
    3.6172  -10.0223   13.9029 C   0  0  0  0  0  0  0  0  0  0  0  0
   -3.5385  -14.6672   15.1024 C   0  0  0  0  0  0  0  0  0  0  0  0
   -4.3756  -15.7198   15.3692 C   0  0  0  0  0  0  0  0  0  0  0  0
   -4.7643  -16.1226   14.1456 C   0  0  0  0  0  0  0  0  0  0  0  0
   -4.6386  -17.4026   13.6354 O   0  0  0  0  0  0  0  0  0  0  0  0
   -8.8230  -20.5134   11.1812 H   0  0  0  0  0  0  0  0  0  0  0  0
   -7.4711  -20.0994   10.1613 H   0  0  0  0  0  0  0  0  0  0  0  0
   -7.4525  -21.5847   11.2040 H   0  0  0  0  0  0  0  0  0  0  0  0
   -5.2186  -19.5049   12.1841 H   0  0  0  0  0  0  0  0  0  0  0  0
   -6.4871  -18.5822   11.1831 H   0  0  0  0  0  0  0  0  0  0  0  0
   -3.5405  -14.6663   11.6330 H   0  0  0  0  0  0  0  0  0  0  0  0
   -0.5621  -13.9189   14.6091 H   0  0  0  0  0  0  0  0  0  0  0  0
    3.5901  -10.6750   15.6885 H   0  0  0  0  0  0  0  0  0  0  0  0
    2.6969   -8.2351   16.8943 H   0  0  0  0  0  0  0  0  0  0  0  0
    3.6544   -6.0689   15.5689 H   0  0  0  0  0  0  0  0  0  0  0  0
    5.2476   -6.7724   13.0946 H   0  0  0  0  0  0  0  0  0  0  0  0
    3.8382   -8.6348   12.3883 H   0  0  0  0  0  0  0  0  0  0  0  0
    5.7000  -10.4506   14.2971 H   0  0  0  0  0  0  0  0  0  0  0  0
   -2.8589  -14.5056   15.9628 H   0  0  0  0  0  0  0  0  0  0  0  0
   -4.2718  -16.3406   16.2440 H   0  0  0  0  0  0  0  0  0  0  0  0
  1  2  1  0
  2  3  1  0
  3  4  1  0
  4  5  2  0
  5  6  1  0
  6  7  2  0
  7  8  1  0
  8  9  1  0
  9 10  1  0
 10 11  2  0
 10 12  1  0
 12 13  2  0
 13 14  1  0
 14 15  2  0
 15 16  1  0
 16 17  1  0
 17 18  2  0
 18 19  1  0
 19 20  1  0
  8 21  2  0
 21 22  1  0
 22 23  2  0
 23 24  1  0
 24  4  1  0
 23  6  1  0
 20 12  1  0
 20 16  2  0
  1 25  1  0
  1 26  1  0
  1 27  1  0
  3 28  1  0
  3 29  1  0
  7 30  1  0
  9 31  1  0
 13 32  1  0
 14 33  1  0
 15 34  1  0
 17 35  1  0
 18 36  1  0
 19 37  1  0
 21 38  1  0
 22 39  1  0
M  END
>  <Energy>  (1033) 
1766.7166601298675

>  <compound_id>  (1033) 
76800

>  <target_id>  (1033) 
1

>  <reference_id>  (1033) 
2

>  <inspiration_ids>  (1033) 
[2, 97]

>  <energy_score>  (1033) 
1667.7887974209805

>  <distance_score>  (1033) 
10.739742425041426

>  <path>  (1033) 
/opt/xchem-fragalysis-2/maxwin/BulkDock/SCRATCH/511022/C76800-P2/C76800-P2.minimised.mol

>  <scratch_subdir>  (1033) 
/opt/xchem-fragalysis-2/maxwin/BulkDock/SCRATCH/511022/C76800-P2

>  <fragmenstein_runtime>  (1033) 
9.241777181625366

>  <fragmenstein_outcome>  (1033) 
too moved

>  <fragmenstein_mode>  (1033) 
expansion

>  <fragmenstein_error>  (1033) 


$$$$
C76800-P97
     RDKit          3D

 39 42  0  0  0  0  0  0  0  0999 V2000
   -9.8219  -20.7918    6.5768 C   0  0  0  0  0  0  0  0  0  0  0  0
   -9.4029  -21.0128    7.9171 O   0  0  0  0  0  0  0  0  0  0  0  0
   -9.0437  -19.8350    8.7075 C   0  0  0  0  0  0  0  0  0  0  0  0
   -7.4099  -18.8428    9.0364 C   0  0  0  0  0  0  0  0  0  0  0  0
   -6.0526  -18.2677    8.6372 N   0  0  0  0  0  0  0  0  0  0  0  0
   -4.3197  -17.8189    9.2875 C   0  0  0  0  0  0  0  0  0  0  0  0
   -2.9230  -16.5124   10.2881 C   0  0  0  0  0  0  0  0  0  0  0  0
   -1.7967  -15.1695   11.4750 C   0  0  0  0  0  0  0  0  0  0  0  0
   -0.8804  -13.9107   13.0889 N   0  0  0  0  0  0  0  0  0  0  0  0
    1.0932  -13.4930   13.6999 C   0  0  0  0  0  0  0  0  0  0  0  0
    1.7671  -14.0930   12.9836 O   0  0  0  0  0  0  0  0  0  0  0  0
    2.4998  -12.4894   15.3793 C   0  0  0  0  0  0  0  0  0  0  0  0
    4.0735  -12.0202   16.8253 C   0  0  0  0  0  0  0  0  0  0  0  0
    5.8998  -11.6505   17.9994 C   0  0  0  0  0  0  0  0  0  0  0  0
    7.2649  -10.6152   16.7708 C   0  0  0  0  0  0  0  0  0  0  0  0
    5.9998  -10.6049   15.0171 C   0  0  0  0  0  0  0  0  0  0  0  0
    6.0853   -9.6150   14.2080 C   0  0  0  0  0  0  0  0  0  0  0  0
    4.7152   -9.4366   13.9494 C   0  0  0  0  0  0  0  0  0  0  0  0
    4.1004  -10.5906   13.8133 N   0  0  0  0  0  0  0  0  0  0  0  0
    4.1957  -11.4333   14.9389 C   0  0  0  0  0  0  0  0  0  0  0  0
   -3.7036  -15.3830   11.8885 C   0  0  0  0  0  0  0  0  0  0  0  0
   -5.5293  -16.1775   11.7351 C   0  0  0  0  0  0  0  0  0  0  0  0
   -6.1707  -17.5590   10.3623 C   0  0  0  0  0  0  0  0  0  0  0  0
   -6.8668  -19.0047   10.5349 O   0  0  0  0  0  0  0  0  0  0  0  0
  -10.8664  -20.5066    6.5478 H   0  0  0  0  0  0  0  0  0  0  0  0
   -9.1996  -20.0664    6.0502 H   0  0  0  0  0  0  0  0  0  0  0  0
   -9.7408  -21.7455    6.0460 H   0  0  0  0  0  0  0  0  0  0  0  0
   -9.8860  -19.1580    8.5328 H   0  0  0  0  0  0  0  0  0  0  0  0
   -9.1286  -20.2861    9.7149 H   0  0  0  0  0  0  0  0  0  0  0  0
   -2.0987  -16.8451    9.5943 H   0  0  0  0  0  0  0  0  0  0  0  0
   -1.4787  -13.4904   13.7301 H   0  0  0  0  0  0  0  0  0  0  0  0
    3.5331  -12.1970   17.8445 H   0  0  0  0  0  0  0  0  0  0  0  0
    5.9250  -11.5450   19.0898 H   0  0  0  0  0  0  0  0  0  0  0  0
    8.3141  -10.3717   16.8187 H   0  0  0  0  0  0  0  0  0  0  0  0
    6.5949   -8.6663   14.2372 H   0  0  0  0  0  0  0  0  0  0  0  0
    4.2948   -8.4858   13.6433 H   0  0  0  0  0  0  0  0  0  0  0  0
    3.2202  -10.5434   13.3303 H   0  0  0  0  0  0  0  0  0  0  0  0
   -3.9043  -14.7378   12.7912 H   0  0  0  0  0  0  0  0  0  0  0  0
   -5.6969  -16.6106   12.7813 H   0  0  0  0  0  0  0  0  0  0  0  0
  1  2  1  0
  2  3  1  0
  3  4  1  0
  4  5  2  0
  5  6  1  0
  6  7  2  0
  7  8  1  0
  8  9  1  0
  9 10  1  0
 10 11  2  0
 10 12  1  0
 12 13  2  0
 13 14  1  0
 14 15  2  0
 15 16  1  0
 16 17  1  0
 17 18  2  0
 18 19  1  0
 19 20  1  0
  8 21  2  0
 21 22  1  0
 22 23  2  0
 23 24  1  0
 24  4  1  0
 23  6  1  0
 20 12  1  0
 20 16  2  0
  1 25  1  0
  1 26  1  0
  1 27  1  0
  3 28  1  0
  3 29  1  0
  7 30  1  0
  9 31  1  0
 13 32  1  0
 14 33  1  0
 15 34  1  0
 17 35  1  0
 18 36  1  0
 19 37  1  0
 21 38  1  0
 22 39  1  0
M  END
>  <Energy>  (1034) 
3950.0034613019384

>  <compound_id>  (1034) 
76800

>  <target_id>  (1034) 
1

>  <reference_id>  (1034) 
97

>  <inspiration_ids>  (1034) 
[2, 97]

>  <energy_score>  (1034) 
3851.0755985930577

>  <distance_score>  (1034) 
9.84041528428232

>  <path>  (1034) 
/opt/xchem-fragalysis-2/maxwin/BulkDock/SCRATCH/511022/C76800-P97/C76800-P97.minimised.mol

>  <scratch_subdir>  (1034) 
/opt/xchem-fragalysis-2/maxwin/BulkDock/SCRATCH/511022/C76800-P97

>  <fragmenstein_runtime>  (1034) 
9.691003799438477

>  <fragmenstein_outcome>  (1034) 
too moved

>  <fragmenstein_mode>  (1034) 
expansion

>  <fragmenstein_error>  (1034) 


$$$$
C76802-P2
     RDKit          3D

 35 38  0  0  0  0  0  0  0  0999 V2000
   -8.7496  -12.5172    6.3906 C   0  0  0  0  0  0  0  0  0  0  0  0
   -7.3782  -12.2561    6.8766 C   0  0  0  0  0  0  0  0  0  0  0  0
   -6.3934  -13.0398    7.2977 N   0  0  0  0  0  0  0  0  0  0  0  0
   -5.3884  -12.1439    7.6615 C   0  0  0  0  0  0  0  0  0  0  0  0
   -4.0663  -12.2397    8.2332 C   0  0  0  0  0  0  0  0  0  0  0  0
   -3.3125  -11.0771    8.7741 C   0  0  0  0  0  0  0  0  0  0  0  0
   -1.7873  -10.6772    9.5386 N   0  0  0  0  0  0  0  0  0  0  0  0
   -0.6198  -11.7090   10.6700 C   0  0  0  0  0  0  0  0  0  0  0  0
   -0.7278  -12.8874   11.0130 O   0  0  0  0  0  0  0  0  0  0  0  0
    0.6740  -11.1875   11.1826 C   0  0  0  0  0  0  0  0  0  0  0  0
    1.5569  -12.4227   10.9049 C   0  0  0  0  0  0  0  0  0  0  0  0
    2.8890  -12.5734    9.8619 C   0  0  0  0  0  0  0  0  0  0  0  0
    3.3386  -11.3982    9.2571 C   0  0  0  0  0  0  0  0  0  0  0  0
    2.8260  -10.3398   10.0913 C   0  0  0  0  0  0  0  0  0  0  0  0
    3.1552   -9.4692   11.2045 C   0  0  0  0  0  0  0  0  0  0  0  0
    3.4829  -10.3079   12.5112 C   0  0  0  0  0  0  0  0  0  0  0  0
    3.0371  -10.9455   11.5036 N   0  0  0  0  0  0  0  0  0  0  0  0
    1.8104  -10.5133   10.9932 C   0  0  0  0  0  0  0  0  0  0  0  0
   -3.8719   -9.9104    8.2130 C   0  0  0  0  0  0  0  0  0  0  0  0
   -5.1237   -9.7388    7.5993 C   0  0  0  0  0  0  0  0  0  0  0  0
   -5.8495  -10.8769    7.4067 C   0  0  0  0  0  0  0  0  0  0  0  0
   -7.0886  -10.9342    6.8883 O   0  0  0  0  0  0  0  0  0  0  0  0
   -9.3570  -11.6062    6.4527 H   0  0  0  0  0  0  0  0  0  0  0  0
   -9.2593  -13.2541    7.0014 H   0  0  0  0  0  0  0  0  0  0  0  0
   -8.7355  -12.8071    5.3399 H   0  0  0  0  0  0  0  0  0  0  0  0
   -3.7399  -13.2587    8.3598 H   0  0  0  0  0  0  0  0  0  0  0  0
   -1.4044   -9.7619    9.3659 H   0  0  0  0  0  0  0  0  0  0  0  0
    1.0874  -13.3523   11.2930 H   0  0  0  0  0  0  0  0  0  0  0  0
    3.3460  -13.5295    9.6306 H   0  0  0  0  0  0  0  0  0  0  0  0
    4.1399  -11.2405    8.5725 H   0  0  0  0  0  0  0  0  0  0  0  0
    3.4047   -8.3845   11.3038 H   0  0  0  0  0  0  0  0  0  0  0  0
    4.1746  -10.2164   13.3670 H   0  0  0  0  0  0  0  0  0  0  0  0
    3.7389  -11.6013   11.1459 H   0  0  0  0  0  0  0  0  0  0  0  0
   -3.2523   -9.0403    8.1044 H   0  0  0  0  0  0  0  0  0  0  0  0
   -5.4654   -8.7675    7.2648 H   0  0  0  0  0  0  0  0  0  0  0  0
  1  2  1  0
  2  3  2  0
  3  4  1  0
  4  5  2  0
  5  6  1  0
  6  7  1  0
  7  8  1  0
  8  9  2  0
  8 10  1  0
 10 11  2  0
 11 12  1  0
 12 13  2  0
 13 14  1  0
 14 15  1  0
 15 16  2  0
 16 17  1  0
 17 18  1  0
  6 19  2  0
 19 20  1  0
 20 21  2  0
 21 22  1  0
 22  2  1  0
 21  4  1  0
 18 10  1  0
 18 14  2  0
  1 23  1  0
  1 24  1  0
  1 25  1  0
  5 26  1  0
  7 27  1  0
 11 28  1  0
 12 29  1  0
 13 30  1  0
 15 31  1  0
 16 32  1  0
 17 33  1  0
 19 34  1  0
 20 35  1  0
M  END
>  <Energy>  (1035) 
623.71027177033488

>  <compound_id>  (1035) 
76802

>  <target_id>  (1035) 
1

>  <reference_id>  (1035) 
2

>  <inspiration_ids>  (1035) 
[2, 97]

>  <energy_score>  (1035) 
563.688478761537

>  <distance_score>  (1035) 
13.307905306122898

>  <path>  (1035) 
/opt/xchem-fragalysis-2/maxwin/BulkDock/SCRATCH/511022/C76802-P2/C76802-P2.minimised.mol

>  <scratch_subdir>  (1035) 
/opt/xchem-fragalysis-2/maxwin/BulkDock/SCRATCH/511022/C76802-P2

>  <fragmenstein_runtime>  (1035) 
15.604896068572998

>  <fragmenstein_outcome>  (1035) 
too moved

>  <fragmenstein_mode>  (1035) 
expansion

>  <fragmenstein_error>  (1035) 


$$$$
C76802-P97
     RDKit          3D

 35 38  0  0  0  0  0  0  0  0999 V2000
   -9.6114  -20.6869    5.1381 C   0  0  0  0  0  0  0  0  0  0  0  0
   -9.0639  -19.8210    6.1972 C   0  0  0  0  0  0  0  0  0  0  0  0
   -8.0874  -18.8510    6.1283 N   0  0  0  0  0  0  0  0  0  0  0  0
   -7.8635  -18.0336    7.7979 C   0  0  0  0  0  0  0  0  0  0  0  0
   -6.1469  -18.1905    8.3847 C   0  0  0  0  0  0  0  0  0  0  0  0
   -4.5173  -18.0098    8.8254 C   0  0  0  0  0  0  0  0  0  0  0  0
   -2.9369  -17.0041    9.1847 N   0  0  0  0  0  0  0  0  0  0  0  0
   -2.5537  -15.7183   10.4649 C   0  0  0  0  0  0  0  0  0  0  0  0
   -3.4121  -15.3161   11.2049 O   0  0  0  0  0  0  0  0  0  0  0  0
   -0.8494  -14.9135   10.9572 C   0  0  0  0  0  0  0  0  0  0  0  0
    0.5638  -14.8290   11.2155 C   0  0  0  0  0  0  0  0  0  0  0  0
    1.5922  -13.2240   11.0426 C   0  0  0  0  0  0  0  0  0  0  0  0
    1.4777  -11.9286   11.2816 C   0  0  0  0  0  0  0  0  0  0  0  0
    0.5495  -12.6808   12.0112 C   0  0  0  0  0  0  0  0  0  0  0  0
   -0.0544  -12.4246   13.1498 C   0  0  0  0  0  0  0  0  0  0  0  0
   -0.5422  -11.3872   12.3715 C   0  0  0  0  0  0  0  0  0  0  0  0
   -0.6858  -12.0650   11.1831 N   0  0  0  0  0  0  0  0  0  0  0  0
   -0.5115  -13.4996   11.4883 C   0  0  0  0  0  0  0  0  0  0  0  0
   -6.1844  -18.1695    9.3828 C   0  0  0  0  0  0  0  0  0  0  0  0
   -7.7669  -19.2899    9.4384 C   0  0  0  0  0  0  0  0  0  0  0  0
   -8.8511  -19.2084    8.3946 C   0  0  0  0  0  0  0  0  0  0  0  0
   -9.5156  -20.0729    7.5388 O   0  0  0  0  0  0  0  0  0  0  0  0
   -9.2245  -21.7047    5.2410 H   0  0  0  0  0  0  0  0  0  0  0  0
   -9.3298  -20.3085    4.1513 H   0  0  0  0  0  0  0  0  0  0  0  0
  -10.7030  -20.7212    5.1944 H   0  0  0  0  0  0  0  0  0  0  0  0
   -6.2579  -18.5811    7.4092 H   0  0  0  0  0  0  0  0  0  0  0  0
   -2.0774  -17.2715    8.7236 H   0  0  0  0  0  0  0  0  0  0  0  0
    1.0934  -15.7640   10.9560 H   0  0  0  0  0  0  0  0  0  0  0  0
    2.5672  -13.2610   10.3948 H   0  0  0  0  0  0  0  0  0  0  0  0
    2.1850  -11.1310   11.3351 H   0  0  0  0  0  0  0  0  0  0  0  0
   -0.5803  -13.2151   13.6531 H   0  0  0  0  0  0  0  0  0  0  0  0
   -0.1187  -10.4380   12.1888 H   0  0  0  0  0  0  0  0  0  0  0  0
   -0.9140  -11.6348   10.3113 H   0  0  0  0  0  0  0  0  0  0  0  0
   -6.6947  -16.7266    9.2698 H   0  0  0  0  0  0  0  0  0  0  0  0
   -7.9197  -19.9433   10.3449 H   0  0  0  0  0  0  0  0  0  0  0  0
  1  2  1  0
  2  3  2  0
  3  4  1  0
  4  5  2  0
  5  6  1  0
  6  7  1  0
  7  8  1  0
  8  9  2  0
  8 10  1  0
 10 11  2  0
 11 12  1  0
 12 13  2  0
 13 14  1  0
 14 15  1  0
 15 16  2  0
 16 17  1  0
 17 18  1  0
  6 19  2  0
 19 20  1  0
 20 21  2  0
 21 22  1  0
 22  2  1  0
 21  4  1  0
 18 10  1  0
 18 14  2  0
  1 23  1  0
  1 24  1  0
  1 25  1  0
  5 26  1  0
  7 27  1  0
 11 28  1  0
 12 29  1  0
 13 30  1  0
 15 31  1  0
 16 32  1  0
 17 33  1  0
 19 34  1  0
 20 35  1  0
M  END
>  <Energy>  (1036) 
1524.3317731039822

>  <compound_id>  (1036) 
76802

>  <target_id>  (1036) 
1

>  <reference_id>  (1036) 
97

>  <inspiration_ids>  (1036) 
[2, 97]

>  <energy_score>  (1036) 
1464.3099800951932

>  <distance_score>  (1036) 
13.005754289433469

>  <path>  (1036) 
/opt/xchem-fragalysis-2/maxwin/BulkDock/SCRATCH/511022/C76802-P97/C76802-P97.minimised.mol

>  <scratch_subdir>  (1036) 
/opt/xchem-fragalysis-2/maxwin/BulkDock/SCRATCH/511022/C76802-P97

>  <fragmenstein_runtime>  (1036) 
10.470309734344482

>  <fragmenstein_outcome>  (1036) 
too moved

>  <fragmenstein_mode>  (1036) 
expansion

>  <fragmenstein_error>  (1036) 


$$$$
C76803-P2
     RDKit          3D

 35 38  0  0  0  0  0  0  0  0999 V2000
   -4.7709  -16.4105   13.7729 C   0  0  0  0  0  0  0  0  0  0  0  0
   -4.4876  -16.0821   15.1830 C   0  0  0  0  0  0  0  0  0  0  0  0
   -4.5785  -14.8661   15.6580 N   0  0  0  0  0  0  0  0  0  0  0  0
   -3.4953  -14.8286   16.4638 C   0  0  0  0  0  0  0  0  0  0  0  0
   -2.4489  -13.9272   16.4094 C   0  0  0  0  0  0  0  0  0  0  0  0
   -1.3102  -14.3435   15.4786 C   0  0  0  0  0  0  0  0  0  0  0  0
   -0.8058  -13.2473   13.8936 N   0  0  0  0  0  0  0  0  0  0  0  0
    0.1445  -13.5437   12.6456 C   0  0  0  0  0  0  0  0  0  0  0  0
    0.7070  -14.5550   12.3383 O   0  0  0  0  0  0  0  0  0  0  0  0
    0.4701  -11.9672   11.6312 C   0  0  0  0  0  0  0  0  0  0  0  0
    1.0332  -10.5566   10.8911 C   0  0  0  0  0  0  0  0  0  0  0  0
    2.6036   -9.7849   10.9898 C   0  0  0  0  0  0  0  0  0  0  0  0
    3.1344   -8.0919   11.4258 C   0  0  0  0  0  0  0  0  0  0  0  0
    3.9021   -7.4610   12.4218 C   0  0  0  0  0  0  0  0  0  0  0  0
    4.3699   -8.4287   13.4033 C   0  0  0  0  0  0  0  0  0  0  0  0
    4.0328  -10.0755   13.2561 C   0  0  0  0  0  0  0  0  0  0  0  0
    3.0120  -10.6691   11.9028 C   0  0  0  0  0  0  0  0  0  0  0  0
    1.5203  -11.0950   12.1826 N   0  0  0  0  0  0  0  0  0  0  0  0
   -0.8077  -14.9366   16.6288 C   0  0  0  0  0  0  0  0  0  0  0  0
   -1.6571  -16.0766   17.2261 C   0  0  0  0  0  0  0  0  0  0  0  0
   -2.9618  -16.0759   16.7141 C   0  0  0  0  0  0  0  0  0  0  0  0
   -3.6668  -16.9489   15.9204 O   0  0  0  0  0  0  0  0  0  0  0  0
   -4.5565  -15.5518   13.1302 H   0  0  0  0  0  0  0  0  0  0  0  0
   -4.1224  -17.2500   13.5271 H   0  0  0  0  0  0  0  0  0  0  0  0
   -5.8100  -16.6367   13.5902 H   0  0  0  0  0  0  0  0  0  0  0  0
   -2.2231  -13.4178   17.3615 H   0  0  0  0  0  0  0  0  0  0  0  0
   -1.0411  -12.2877   13.9043 H   0  0  0  0  0  0  0  0  0  0  0  0
    0.4835   -9.9874   10.1586 H   0  0  0  0  0  0  0  0  0  0  0  0
    2.2971   -7.3729   11.1693 H   0  0  0  0  0  0  0  0  0  0  0  0
    4.0970   -6.4264   12.1670 H   0  0  0  0  0  0  0  0  0  0  0  0
    5.3100   -8.1503   13.8644 H   0  0  0  0  0  0  0  0  0  0  0  0
    4.6064  -10.7996   13.8398 H   0  0  0  0  0  0  0  0  0  0  0  0
    1.1716  -10.2224   12.5036 H   0  0  0  0  0  0  0  0  0  0  0  0
    0.2387  -14.8534   16.9385 H   0  0  0  0  0  0  0  0  0  0  0  0
   -1.1789  -16.9325   17.6899 H   0  0  0  0  0  0  0  0  0  0  0  0
  1  2  1  0
  2  3  2  0
  3  4  1  0
  4  5  2  0
  5  6  1  0
  6  7  1  0
  7  8  1  0
  8  9  2  0
  8 10  1  0
 10 11  2  0
 11 12  1  0
 12 13  2  0
 13 14  1  0
 14 15  2  0
 15 16  1  0
 16 17  2  0
 17 18  1  0
  6 19  2  0
 19 20  1  0
 20 21  2  0
 21 22  1  0
 22  2  1  0
 21  4  1  0
 18 10  1  0
 17 12  1  0
  1 23  1  0
  1 24  1  0
  1 25  1  0
  5 26  1  0
  7 27  1  0
 11 28  1  0
 13 29  1  0
 14 30  1  0
 15 31  1  0
 16 32  1  0
 18 33  1  0
 19 34  1  0
 20 35  1  0
M  END
>  <Energy>  (1037) 
809.76926340889395

>  <compound_id>  (1037) 
76803

>  <target_id>  (1037) 
1

>  <reference_id>  (1037) 
2

>  <inspiration_ids>  (1037) 
[2, 97]

>  <energy_score>  (1037) 
764.7238109443786

>  <distance_score>  (1037) 
13.14148726729699

>  <path>  (1037) 
/opt/xchem-fragalysis-2/maxwin/BulkDock/SCRATCH/511022/C76803-P2/C76803-P2.minimised.mol

>  <scratch_subdir>  (1037) 
/opt/xchem-fragalysis-2/maxwin/BulkDock/SCRATCH/511022/C76803-P2

>  <fragmenstein_runtime>  (1037) 
13.07892370223999

>  <fragmenstein_outcome>  (1037) 
too moved

>  <fragmenstein_mode>  (1037) 
expansion

>  <fragmenstein_error>  (1037) 


$$$$
C76803-P97
     RDKit          3D

 35 38  0  0  0  0  0  0  0  0999 V2000
    0.7923  -18.4238    8.5298 C   0  0  0  0  0  0  0  0  0  0  0  0
    1.7088  -17.3067    8.8967 C   0  0  0  0  0  0  0  0  0  0  0  0
    1.4082  -16.1101    9.3539 N   0  0  0  0  0  0  0  0  0  0  0  0
    2.6112  -15.3882    9.3903 C   0  0  0  0  0  0  0  0  0  0  0  0
    2.9672  -13.8690    9.7984 C   0  0  0  0  0  0  0  0  0  0  0  0
    4.1601  -13.3176    9.7919 C   0  0  0  0  0  0  0  0  0  0  0  0
    4.3893  -11.7612    8.8728 N   0  0  0  0  0  0  0  0  0  0  0  0
    5.8039  -11.0879    8.1525 C   0  0  0  0  0  0  0  0  0  0  0  0
    6.8779  -11.6244    8.0852 O   0  0  0  0  0  0  0  0  0  0  0  0
    5.8740   -9.7179    7.4768 C   0  0  0  0  0  0  0  0  0  0  0  0
    6.9009   -9.5336    6.5028 C   0  0  0  0  0  0  0  0  0  0  0  0
    7.7158   -8.4030    6.8486 C   0  0  0  0  0  0  0  0  0  0  0  0
    9.0167   -7.9509    6.5325 C   0  0  0  0  0  0  0  0  0  0  0  0
    9.4965   -6.7554    7.0888 C   0  0  0  0  0  0  0  0  0  0  0  0
    8.6692   -5.9745    7.8830 C   0  0  0  0  0  0  0  0  0  0  0  0
    7.3748   -6.4030    8.1876 C   0  0  0  0  0  0  0  0  0  0  0  0
    6.9617   -7.6602    7.7261 C   0  0  0  0  0  0  0  0  0  0  0  0
    5.8545   -8.4337    8.0263 N   0  0  0  0  0  0  0  0  0  0  0  0
    5.1524  -14.5381    9.7032 C   0  0  0  0  0  0  0  0  0  0  0  0
    4.9180  -15.9358    9.3136 C   0  0  0  0  0  0  0  0  0  0  0  0
    3.6091  -16.2945    9.1152 C   0  0  0  0  0  0  0  0  0  0  0  0
    3.0601  -17.5021    8.7575 O   0  0  0  0  0  0  0  0  0  0  0  0
    0.8771  -18.6455    7.4622 H   0  0  0  0  0  0  0  0  0  0  0  0
    1.0453  -19.3232    9.0984 H   0  0  0  0  0  0  0  0  0  0  0  0
   -0.2453  -18.1551    8.7484 H   0  0  0  0  0  0  0  0  0  0  0  0
    2.3280  -13.0815   10.1860 H   0  0  0  0  0  0  0  0  0  0  0  0
    3.6111  -11.1395    8.7192 H   0  0  0  0  0  0  0  0  0  0  0  0
    7.2685  -10.3474    5.8856 H   0  0  0  0  0  0  0  0  0  0  0  0
    9.6531   -8.5418    5.8805 H   0  0  0  0  0  0  0  0  0  0  0  0
   10.5079   -6.4264    6.8669 H   0  0  0  0  0  0  0  0  0  0  0  0
    9.0346   -5.0292    8.2704 H   0  0  0  0  0  0  0  0  0  0  0  0
    6.7224   -5.7813    8.7795 H   0  0  0  0  0  0  0  0  0  0  0  0
    5.2527   -8.1751    8.7821 H   0  0  0  0  0  0  0  0  0  0  0  0
    6.2338  -14.3832    9.6309 H   0  0  0  0  0  0  0  0  0  0  0  0
    5.7411  -16.6223    9.1580 H   0  0  0  0  0  0  0  0  0  0  0  0
  1  2  1  0
  2  3  2  0
  3  4  1  0
  4  5  2  0
  5  6  1  0
  6  7  1  0
  7  8  1  0
  8  9  2  0
  8 10  1  0
 10 11  2  0
 11 12  1  0
 12 13  2  0
 13 14  1  0
 14 15  2  0
 15 16  1  0
 16 17  2  0
 17 18  1  0
  6 19  2  0
 19 20  1  0
 20 21  2  0
 21 22  1  0
 22  2  1  0
 21  4  1  0
 18 10  1  0
 17 12  1  0
  1 23  1  0
  1 24  1  0
  1 25  1  0
  5 26  1  0
  7 27  1  0
 11 28  1  0
 13 29  1  0
 14 30  1  0
 15 31  1  0
 16 32  1  0
 18 33  1  0
 19 34  1  0
 20 35  1  0
M  END
>  <Energy>  (1038) 
206.69860654061711

>  <compound_id>  (1038) 
76803

>  <target_id>  (1038) 
1

>  <reference_id>  (1038) 
97

>  <inspiration_ids>  (1038) 
[2, 97]

>  <energy_score>  (1038) 
161.65315407610666

>  <distance_score>  (1038) 
12.91335693327869

>  <path>  (1038) 
/opt/xchem-fragalysis-2/maxwin/BulkDock/SCRATCH/511022/C76803-P97/C76803-P97.minimised.mol

>  <scratch_subdir>  (1038) 
/opt/xchem-fragalysis-2/maxwin/BulkDock/SCRATCH/511022/C76803-P97

>  <fragmenstein_runtime>  (1038) 
11.067256212234497

>  <fragmenstein_outcome>  (1038) 
too moved

>  <fragmenstein_mode>  (1038) 
expansion

>  <fragmenstein_error>  (1038) 


$$$$
C76804-P2
     RDKit          3D

 39 42  0  0  0  0  0  0  0  0999 V2000
   -7.8493  -21.5646   11.2621 C   0  0  0  0  0  0  0  0  0  0  0  0
   -7.5325  -20.0587   11.2359 C   0  0  0  0  0  0  0  0  0  0  0  0
   -6.4759  -19.6456   12.1087 O   0  0  0  0  0  0  0  0  0  0  0  0
   -6.1268  -18.3859   12.4424 C   0  0  0  0  0  0  0  0  0  0  0  0
   -6.3845  -17.2399   11.8893 N   0  0  0  0  0  0  0  0  0  0  0  0
   -5.5253  -16.1947   12.4643 C   0  0  0  0  0  0  0  0  0  0  0  0
   -4.7028  -15.0150   11.8999 C   0  0  0  0  0  0  0  0  0  0  0  0
   -3.2768  -15.0797   11.8680 C   0  0  0  0  0  0  0  0  0  0  0  0
   -1.5233  -14.3069   11.8863 N   0  0  0  0  0  0  0  0  0  0  0  0
   -0.4466  -13.6964   13.3057 C   0  0  0  0  0  0  0  0  0  0  0  0
   -0.9392  -13.9559   14.2726 O   0  0  0  0  0  0  0  0  0  0  0  0
    1.0914  -12.6018   13.6944 C   0  0  0  0  0  0  0  0  0  0  0  0
    1.8840  -12.5523   15.2963 C   0  0  0  0  0  0  0  0  0  0  0  0
    3.2667  -11.6306   16.1144 C   0  0  0  0  0  0  0  0  0  0  0  0
    4.0960  -11.1985   15.2133 C   0  0  0  0  0  0  0  0  0  0  0  0
    3.4921  -10.5188   14.1450 C   0  0  0  0  0  0  0  0  0  0  0  0
    4.2132   -9.4729   13.6050 C   0  0  0  0  0  0  0  0  0  0  0  0
    4.4883  -10.5879   12.9974 C   0  0  0  0  0  0  0  0  0  0  0  0
    3.0480  -10.6672   11.8953 N   0  0  0  0  0  0  0  0  0  0  0  0
    2.0748  -11.1189   13.1925 C   0  0  0  0  0  0  0  0  0  0  0  0
   -3.9821  -14.8003   13.2743 C   0  0  0  0  0  0  0  0  0  0  0  0
   -4.3979  -15.8408   14.2898 C   0  0  0  0  0  0  0  0  0  0  0  0
   -4.9257  -16.7720   13.5063 C   0  0  0  0  0  0  0  0  0  0  0  0
   -4.9813  -18.1568   13.1904 O   0  0  0  0  0  0  0  0  0  0  0  0
   -7.7521  -22.0050   10.2665 H   0  0  0  0  0  0  0  0  0  0  0  0
   -8.9048  -21.7265   11.5134 H   0  0  0  0  0  0  0  0  0  0  0  0
   -7.2465  -22.1215   11.9822 H   0  0  0  0  0  0  0  0  0  0  0  0
   -8.4914  -19.6417   11.5396 H   0  0  0  0  0  0  0  0  0  0  0  0
   -7.3219  -19.7601   10.2125 H   0  0  0  0  0  0  0  0  0  0  0  0
   -5.4288  -14.4391   11.3255 H   0  0  0  0  0  0  0  0  0  0  0  0
   -1.0170  -14.1407   11.0243 H   0  0  0  0  0  0  0  0  0  0  0  0
    1.5001  -13.2532   16.0906 H   0  0  0  0  0  0  0  0  0  0  0  0
    3.4571  -11.7148   17.1728 H   0  0  0  0  0  0  0  0  0  0  0  0
    4.7988  -11.9036   14.7791 H   0  0  0  0  0  0  0  0  0  0  0  0
    4.9412   -8.7499   13.9033 H   0  0  0  0  0  0  0  0  0  0  0  0
    5.3604  -11.1536   12.7097 H   0  0  0  0  0  0  0  0  0  0  0  0
    2.7606   -9.7500   11.6151 H   0  0  0  0  0  0  0  0  0  0  0  0
   -3.6980  -13.9211   13.7879 H   0  0  0  0  0  0  0  0  0  0  0  0
   -3.9555  -15.9014   15.2693 H   0  0  0  0  0  0  0  0  0  0  0  0
  1  2  1  0
  2  3  1  0
  3  4  1  0
  4  5  2  0
  5  6  1  0
  6  7  2  0
  7  8  1  0
  8  9  1  0
  9 10  1  0
 10 11  2  0
 10 12  1  0
 12 13  2  0
 13 14  1  0
 14 15  2  0
 15 16  1  0
 16 17  1  0
 17 18  2  0
 18 19  1  0
 19 20  1  0
  8 21  2  0
 21 22  1  0
 22 23  2  0
 23 24  1  0
 24  4  1  0
 23  6  1  0
 20 12  1  0
 20 16  2  0
  1 25  1  0
  1 26  1  0
  1 27  1  0
  2 28  1  0
  2 29  1  0
  7 30  1  0
  9 31  1  0
 13 32  1  0
 14 33  1  0
 15 34  1  0
 17 35  1  0
 18 36  1  0
 19 37  1  0
 21 38  1  0
 22 39  1  0
M  END
>  <Energy>  (1039) 
1071.6525857246465

>  <compound_id>  (1039) 
76804

>  <target_id>  (1039) 
1

>  <reference_id>  (1039) 
2

>  <inspiration_ids>  (1039) 
[2, 97]

>  <energy_score>  (1039) 
1018.4147333718005

>  <distance_score>  (1039) 
11.385139278770637

>  <path>  (1039) 
/opt/xchem-fragalysis-2/maxwin/BulkDock/SCRATCH/511022/C76804-P2/C76804-P2.minimised.mol

>  <scratch_subdir>  (1039) 
/opt/xchem-fragalysis-2/maxwin/BulkDock/SCRATCH/511022/C76804-P2

>  <fragmenstein_runtime>  (1039) 
13.495202541351318

>  <fragmenstein_outcome>  (1039) 
too moved

>  <fragmenstein_mode>  (1039) 
expansion

>  <fragmenstein_error>  (1039) 


$$$$
C76804-P97
     RDKit          3D

 39 42  0  0  0  0  0  0  0  0999 V2000
   -7.4963  -17.8825    8.0880 C   0  0  0  0  0  0  0  0  0  0  0  0
   -5.9673  -18.1786    8.7502 C   0  0  0  0  0  0  0  0  0  0  0  0
   -4.1579  -17.5318    8.4722 O   0  0  0  0  0  0  0  0  0  0  0  0
   -2.9335  -16.6803    9.2804 C   0  0  0  0  0  0  0  0  0  0  0  0
   -2.8484  -15.3429    9.6375 N   0  0  0  0  0  0  0  0  0  0  0  0
   -1.5687  -14.9559   10.5663 C   0  0  0  0  0  0  0  0  0  0  0  0
   -0.5877  -13.5173   11.1016 C   0  0  0  0  0  0  0  0  0  0  0  0
    0.4482  -12.8945   11.6814 C   0  0  0  0  0  0  0  0  0  0  0  0
    1.1413  -11.1876   11.8467 N   0  0  0  0  0  0  0  0  0  0  0  0
    1.0434   -9.7103   10.7541 C   0  0  0  0  0  0  0  0  0  0  0  0
    0.5274   -9.7843    9.6845 O   0  0  0  0  0  0  0  0  0  0  0  0
    1.5343   -7.8037   11.1230 C   0  0  0  0  0  0  0  0  0  0  0  0
    0.6651   -6.6511   10.7462 C   0  0  0  0  0  0  0  0  0  0  0  0
    0.6529   -5.3036   11.1979 C   0  0  0  0  0  0  0  0  0  0  0  0
    1.7330   -4.7483   11.8273 C   0  0  0  0  0  0  0  0  0  0  0  0
    2.8910   -5.4489   11.5324 C   0  0  0  0  0  0  0  0  0  0  0  0
    4.1959   -4.8989   11.3829 C   0  0  0  0  0  0  0  0  0  0  0  0
    4.8726   -5.8058   10.6368 C   0  0  0  0  0  0  0  0  0  0  0  0
    4.1268   -6.9484   10.6174 N   0  0  0  0  0  0  0  0  0  0  0  0
    2.8373   -6.8560   11.1772 C   0  0  0  0  0  0  0  0  0  0  0  0
    0.6011  -14.2473   12.1258 C   0  0  0  0  0  0  0  0  0  0  0  0
    0.2014  -15.8403   11.5299 C   0  0  0  0  0  0  0  0  0  0  0  0
   -0.9167  -16.1486   10.6843 C   0  0  0  0  0  0  0  0  0  0  0  0
   -1.7058  -17.2664    9.9898 O   0  0  0  0  0  0  0  0  0  0  0  0
   -7.7549  -16.8521    8.3249 H   0  0  0  0  0  0  0  0  0  0  0  0
   -8.3199  -18.4943    8.4320 H   0  0  0  0  0  0  0  0  0  0  0  0
   -7.5953  -18.0469    7.0290 H   0  0  0  0  0  0  0  0  0  0  0  0
   -6.2003  -18.3141    9.7634 H   0  0  0  0  0  0  0  0  0  0  0  0
   -6.4720  -17.3168    9.0058 H   0  0  0  0  0  0  0  0  0  0  0  0
   -0.7715  -12.4841   10.6772 H   0  0  0  0  0  0  0  0  0  0  0  0
    1.6821  -10.9523   12.6600 H   0  0  0  0  0  0  0  0  0  0  0  0
   -0.1059   -6.7799    9.9697 H   0  0  0  0  0  0  0  0  0  0  0  0
   -0.2025   -4.6763   10.9510 H   0  0  0  0  0  0  0  0  0  0  0  0
    1.7409   -3.7013   12.1098 H   0  0  0  0  0  0  0  0  0  0  0  0
    4.4937   -3.8753   11.5686 H   0  0  0  0  0  0  0  0  0  0  0  0
    5.8108   -5.7649   10.1001 H   0  0  0  0  0  0  0  0  0  0  0  0
    4.4319   -7.7390   10.0736 H   0  0  0  0  0  0  0  0  0  0  0  0
    1.2024  -14.3564   12.9816 H   0  0  0  0  0  0  0  0  0  0  0  0
    0.7765  -16.6619   11.9558 H   0  0  0  0  0  0  0  0  0  0  0  0
  1  2  1  0
  2  3  1  0
  3  4  1  0
  4  5  2  0
  5  6  1  0
  6  7  2  0
  7  8  1  0
  8  9  1  0
  9 10  1  0
 10 11  2  0
 10 12  1  0
 12 13  2  0
 13 14  1  0
 14 15  2  0
 15 16  1  0
 16 17  1  0
 17 18  2  0
 18 19  1  0
 19 20  1  0
  8 21  2  0
 21 22  1  0
 22 23  2  0
 23 24  1  0
 24  4  1  0
 23  6  1  0
 20 12  1  0
 20 16  2  0
  1 25  1  0
  1 26  1  0
  1 27  1  0
  2 28  1  0
  2 29  1  0
  7 30  1  0
  9 31  1  0
 13 32  1  0
 14 33  1  0
 15 34  1  0
 17 35  1  0
 18 36  1  0
 19 37  1  0
 21 38  1  0
 22 39  1  0
M  END
>  <Energy>  (1040) 
841.9468392496043

>  <compound_id>  (1040) 
76804

>  <target_id>  (1040) 
1

>  <reference_id>  (1040) 
97

>  <inspiration_ids>  (1040) 
[2, 97]

>  <energy_score>  (1040) 
788.70898689676

>  <distance_score>  (1040) 
11.55857395120558

>  <path>  (1040) 
/opt/xchem-fragalysis-2/maxwin/BulkDock/SCRATCH/511022/C76804-P97/C76804-P97.minimised.mol

>  <scratch_subdir>  (1040) 
/opt/xchem-fragalysis-2/maxwin/BulkDock/SCRATCH/511022/C76804-P97

>  <fragmenstein_runtime>  (1040) 
14.501168727874756

>  <fragmenstein_outcome>  (1040) 
too moved

>  <fragmenstein_mode>  (1040) 
expansion

>  <fragmenstein_error>  (1040) 


$$$$
C76799-P2
     RDKit          3D

 36 39  0  0  0  0  0  0  0  0999 V2000
   -6.7810  -16.1844    8.8718 N   0  0  0  0  0  0  0  0  0  0  0  0
   -5.8013  -17.6862    8.7593 C   0  0  0  0  0  0  0  0  0  0  0  0
   -6.2841  -18.7614    8.8810 O   0  0  0  0  0  0  0  0  0  0  0  0
   -3.8056  -17.1843    8.5542 C   0  0  0  0  0  0  0  0  0  0  0  0
   -3.2579  -15.7285    8.7312 N   0  0  0  0  0  0  0  0  0  0  0  0
   -2.1132  -15.4385    9.9912 C   0  0  0  0  0  0  0  0  0  0  0  0
   -1.0672  -14.2688   10.9639 C   0  0  0  0  0  0  0  0  0  0  0  0
   -0.0451  -13.2092   11.9214 C   0  0  0  0  0  0  0  0  0  0  0  0
    0.9456  -12.3735   13.3545 N   0  0  0  0  0  0  0  0  0  0  0  0
    2.4883  -11.0793   13.3246 C   0  0  0  0  0  0  0  0  0  0  0  0
    2.8459  -10.6044   12.2204 O   0  0  0  0  0  0  0  0  0  0  0  0
    3.8968  -10.5415   14.8410 C   0  0  0  0  0  0  0  0  0  0  0  0
    3.7632  -10.2633   16.7781 C   0  0  0  0  0  0  0  0  0  0  0  0
    5.0031   -9.7378   18.1919 C   0  0  0  0  0  0  0  0  0  0  0  0
    6.7880   -9.8548   17.6668 C   0  0  0  0  0  0  0  0  0  0  0  0
    7.2840   -9.9123   15.7354 C   0  0  0  0  0  0  0  0  0  0  0  0
    8.4788   -9.8994   14.9595 C   0  0  0  0  0  0  0  0  0  0  0  0
    8.1009  -10.2751   13.7012 C   0  0  0  0  0  0  0  0  0  0  0  0
    6.7480  -10.6306   13.5278 N   0  0  0  0  0  0  0  0  0  0  0  0
    5.8014  -10.3219   14.5204 C   0  0  0  0  0  0  0  0  0  0  0  0
    0.2903  -14.7855   11.8280 C   0  0  0  0  0  0  0  0  0  0  0  0
   -0.1981  -16.3649   11.0298 C   0  0  0  0  0  0  0  0  0  0  0  0
   -1.5087  -16.6623   10.1516 C   0  0  0  0  0  0  0  0  0  0  0  0
   -2.4865  -17.7855    9.5074 O   0  0  0  0  0  0  0  0  0  0  0  0
   -6.1761  -15.3623    8.6146 H   0  0  0  0  0  0  0  0  0  0  0  0
   -6.1367  -15.3544    8.8517 H   0  0  0  0  0  0  0  0  0  0  0  0
   -1.7238  -14.7472   11.7182 H   0  0  0  0  0  0  0  0  0  0  0  0
    0.8379  -12.7269   14.2915 H   0  0  0  0  0  0  0  0  0  0  0  0
    2.8213   -9.9847   17.2405 H   0  0  0  0  0  0  0  0  0  0  0  0
    4.6813   -9.6611   19.2253 H   0  0  0  0  0  0  0  0  0  0  0  0
    7.6094   -9.9179   18.3955 H   0  0  0  0  0  0  0  0  0  0  0  0
    9.4902   -9.7944   15.3215 H   0  0  0  0  0  0  0  0  0  0  0  0
    8.8053  -10.5966   12.9493 H   0  0  0  0  0  0  0  0  0  0  0  0
    6.4652  -11.3237   12.8814 H   0  0  0  0  0  0  0  0  0  0  0  0
    0.9862  -15.0110   12.6004 H   0  0  0  0  0  0  0  0  0  0  0  0
    0.4060  -17.2291   11.3258 H   0  0  0  0  0  0  0  0  0  0  0  0
  1  2  1  0
  2  3  2  0
  2  4  1  0
  4  5  2  0
  5  6  1  0
  6  7  2  0
  7  8  1  0
  8  9  1  0
  9 10  1  0
 10 11  2  0
 10 12  1  0
 12 13  2  0
 13 14  1  0
 14 15  2  0
 15 16  1  0
 16 17  1  0
 17 18  2  0
 18 19  1  0
 19 20  1  0
  8 21  2  0
 21 22  1  0
 22 23  2  0
 23 24  1  0
 24  4  1  0
 23  6  1  0
 20 12  1  0
 20 16  2  0
  1 25  1  0
  1 26  1  0
  7 27  1  0
  9 28  1  0
 13 29  1  0
 14 30  1  0
 15 31  1  0
 17 32  1  0
 18 33  1  0
 19 34  1  0
 21 35  1  0
 22 36  1  0
M  END
>  <Energy>  (1041) 
1826.5324358182695

>  <compound_id>  (1041) 
76799

>  <target_id>  (1041) 
1

>  <reference_id>  (1041) 
2

>  <inspiration_ids>  (1041) 
[2, 97]

>  <energy_score>  (1041) 
1709.952447268798

>  <distance_score>  (1041) 
10.327932941001931

>  <path>  (1041) 
/opt/xchem-fragalysis-2/maxwin/BulkDock/SCRATCH/511022/C76799-P2/C76799-P2.minimised.mol

>  <scratch_subdir>  (1041) 
/opt/xchem-fragalysis-2/maxwin/BulkDock/SCRATCH/511022/C76799-P2

>  <fragmenstein_runtime>  (1041) 
10.546801567077637

>  <fragmenstein_outcome>  (1041) 
too moved

>  <fragmenstein_mode>  (1041) 
expansion

>  <fragmenstein_error>  (1041) 


$$$$
C76799-P97
     RDKit          3D

 36 39  0  0  0  0  0  0  0  0999 V2000
   -7.0599  -21.2518   12.7103 N   0  0  0  0  0  0  0  0  0  0  0  0
   -6.5753  -19.6993   12.1467 C   0  0  0  0  0  0  0  0  0  0  0  0
   -6.8507  -19.2988   11.0744 O   0  0  0  0  0  0  0  0  0  0  0  0
   -5.7385  -18.3906   13.0946 C   0  0  0  0  0  0  0  0  0  0  0  0
   -5.8351  -17.1113   12.7113 N   0  0  0  0  0  0  0  0  0  0  0  0
   -4.9214  -16.1902   13.3243 C   0  0  0  0  0  0  0  0  0  0  0  0
   -4.0935  -14.8807   12.8538 C   0  0  0  0  0  0  0  0  0  0  0  0
   -3.0266  -14.1474   13.6376 C   0  0  0  0  0  0  0  0  0  0  0  0
   -1.0158  -13.5912   13.8833 N   0  0  0  0  0  0  0  0  0  0  0  0
    0.1515  -12.1916   13.0507 C   0  0  0  0  0  0  0  0  0  0  0  0
   -0.3544  -11.5843   12.1302 O   0  0  0  0  0  0  0  0  0  0  0  0
    2.0835  -11.2915   13.5348 C   0  0  0  0  0  0  0  0  0  0  0  0
    3.5936  -11.1617   14.6577 C   0  0  0  0  0  0  0  0  0  0  0  0
    4.9867  -11.7547   14.3152 C   0  0  0  0  0  0  0  0  0  0  0  0
    5.8832  -11.0738   13.6503 C   0  0  0  0  0  0  0  0  0  0  0  0
    5.1734  -10.0184   13.9750 C   0  0  0  0  0  0  0  0  0  0  0  0
    5.8147   -8.3240   14.0557 C   0  0  0  0  0  0  0  0  0  0  0  0
    4.8038   -7.6282   13.5675 C   0  0  0  0  0  0  0  0  0  0  0  0
    3.9899   -8.6817   13.8303 N   0  0  0  0  0  0  0  0  0  0  0  0
    3.7045  -10.2969   13.3493 C   0  0  0  0  0  0  0  0  0  0  0  0
   -3.2935  -15.0044   15.0749 C   0  0  0  0  0  0  0  0  0  0  0  0
   -3.9564  -16.2584   15.4562 C   0  0  0  0  0  0  0  0  0  0  0  0
   -4.5822  -16.9117   14.4344 C   0  0  0  0  0  0  0  0  0  0  0  0
   -4.8887  -18.2935   14.2286 O   0  0  0  0  0  0  0  0  0  0  0  0
   -6.6235  -21.4255   13.5919 H   0  0  0  0  0  0  0  0  0  0  0  0
   -6.8164  -21.3347   13.6828 H   0  0  0  0  0  0  0  0  0  0  0  0
   -4.0519  -14.8428   11.7871 H   0  0  0  0  0  0  0  0  0  0  0  0
   -0.5498  -13.9566   14.6600 H   0  0  0  0  0  0  0  0  0  0  0  0
    3.5332  -11.5382   15.7217 H   0  0  0  0  0  0  0  0  0  0  0  0
    5.2060  -12.7874   14.2326 H   0  0  0  0  0  0  0  0  0  0  0  0
    6.8977  -11.2635   13.3930 H   0  0  0  0  0  0  0  0  0  0  0  0
    6.7326   -8.0507   14.4703 H   0  0  0  0  0  0  0  0  0  0  0  0
    4.5697   -6.5857   13.4761 H   0  0  0  0  0  0  0  0  0  0  0  0
    3.1848   -8.5562   14.3640 H   0  0  0  0  0  0  0  0  0  0  0  0
   -2.6272  -14.7080   15.9096 H   0  0  0  0  0  0  0  0  0  0  0  0
   -3.7769  -16.7150   16.4203 H   0  0  0  0  0  0  0  0  0  0  0  0
  1  2  1  0
  2  3  2  0
  2  4  1  0
  4  5  2  0
  5  6  1  0
  6  7  2  0
  7  8  1  0
  8  9  1  0
  9 10  1  0
 10 11  2  0
 10 12  1  0
 12 13  2  0
 13 14  1  0
 14 15  2  0
 15 16  1  0
 16 17  1  0
 17 18  2  0
 18 19  1  0
 19 20  1  0
  8 21  2  0
 21 22  1  0
 22 23  2  0
 23 24  1  0
 24  4  1  0
 23  6  1  0
 20 12  1  0
 20 16  2  0
  1 25  1  0
  1 26  1  0
  7 27  1  0
  9 28  1  0
 13 29  1  0
 14 30  1  0
 15 31  1  0
 17 32  1  0
 18 33  1  0
 19 34  1  0
 21 35  1  0
 22 36  1  0
M  END
>  <Energy>  (1042) 
1594.4237566180777

>  <compound_id>  (1042) 
76799

>  <target_id>  (1042) 
1

>  <reference_id>  (1042) 
97

>  <inspiration_ids>  (1042) 
[2, 97]

>  <energy_score>  (1042) 
1477.8437680686052

>  <distance_score>  (1042) 
10.700051801005554

>  <path>  (1042) 
/opt/xchem-fragalysis-2/maxwin/BulkDock/SCRATCH/511022/C76799-P97/C76799-P97.minimised.mol

>  <scratch_subdir>  (1042) 
/opt/xchem-fragalysis-2/maxwin/BulkDock/SCRATCH/511022/C76799-P97

>  <fragmenstein_runtime>  (1042) 
16.796915531158447

>  <fragmenstein_outcome>  (1042) 
too moved

>  <fragmenstein_mode>  (1042) 
expansion

>  <fragmenstein_error>  (1042) 


$$$$
C14455-P2
     RDKit          3D

 37 40  0  0  0  0  0  0  0  0999 V2000
   -0.0203  -17.2133   10.3884 N   0  0  0  0  0  0  0  0  0  0  0  0
   -0.9730  -16.1445   10.6111 C   0  0  0  0  0  0  0  0  0  0  0  0
   -2.1340  -16.0673   10.3359 O   0  0  0  0  0  0  0  0  0  0  0  0
   -0.2970  -15.0238   11.2435 C   0  0  0  0  0  0  0  0  0  0  0  0
    0.9161  -14.7659   10.9597 N   0  0  0  0  0  0  0  0  0  0  0  0
    1.0597  -13.2802   11.2124 C   0  0  0  0  0  0  0  0  0  0  0  0
    2.2712  -12.1783   10.7727 C   0  0  0  0  0  0  0  0  0  0  0  0
    2.1267  -10.8027   11.0058 C   0  0  0  0  0  0  0  0  0  0  0  0
    3.0066   -9.6814   11.0044 N   0  0  0  0  0  0  0  0  0  0  0  0
    3.2520   -7.7876   11.3677 C   0  0  0  0  0  0  0  0  0  0  0  0
    3.8124   -6.2867   10.7157 C   0  0  0  0  0  0  0  0  0  0  0  0
    4.7781   -6.2963    9.5965 C   0  0  0  0  0  0  0  0  0  0  0  0
    5.0764   -5.1791    8.7938 C   0  0  0  0  0  0  0  0  0  0  0  0
    4.6120   -3.9263    9.1636 C   0  0  0  0  0  0  0  0  0  0  0  0
    3.9045   -3.8373   10.3715 C   0  0  0  0  0  0  0  0  0  0  0  0
    3.5632   -2.6830   11.0402 N   0  0  0  0  0  0  0  0  0  0  0  0
    2.8281   -2.9841   12.1420 C   0  0  0  0  0  0  0  0  0  0  0  0
    2.6945   -4.3547   12.1833 C   0  0  0  0  0  0  0  0  0  0  0  0
    3.4576   -4.9468   11.1287 C   0  0  0  0  0  0  0  0  0  0  0  0
    0.8509  -10.6707   11.4290 C   0  0  0  0  0  0  0  0  0  0  0  0
   -0.1353  -11.5713   11.9533 C   0  0  0  0  0  0  0  0  0  0  0  0
   -0.0246  -12.9114   11.8392 C   0  0  0  0  0  0  0  0  0  0  0  0
   -0.8201  -14.0298   11.9649 O   0  0  0  0  0  0  0  0  0  0  0  0
    0.9338  -16.8806   10.6563 H   0  0  0  0  0  0  0  0  0  0  0  0
    0.8773  -16.9753   10.8685 H   0  0  0  0  0  0  0  0  0  0  0  0
    3.1619  -12.5788   10.2867 H   0  0  0  0  0  0  0  0  0  0  0  0
    3.1143   -9.8383   12.0293 H   0  0  0  0  0  0  0  0  0  0  0  0
    3.9802   -8.0144   10.5850 H   0  0  0  0  0  0  0  0  0  0  0  0
    3.7425   -7.7358   12.3447 H   0  0  0  0  0  0  0  0  0  0  0  0
    5.2196   -7.2390    9.2676 H   0  0  0  0  0  0  0  0  0  0  0  0
    5.7163   -5.2931    7.9227 H   0  0  0  0  0  0  0  0  0  0  0  0
    4.8969   -3.0421    8.6017 H   0  0  0  0  0  0  0  0  0  0  0  0
    3.8095   -1.7534   10.7287 H   0  0  0  0  0  0  0  0  0  0  0  0
    2.4381   -2.2084   12.7865 H   0  0  0  0  0  0  0  0  0  0  0  0
    2.1269   -4.8489   12.9513 H   0  0  0  0  0  0  0  0  0  0  0  0
    0.6571   -9.6267   11.4007 H   0  0  0  0  0  0  0  0  0  0  0  0
   -0.9719  -11.0646   12.3769 H   0  0  0  0  0  0  0  0  0  0  0  0
  1  2  1  0
  2  3  2  0
  2  4  1  0
  4  5  2  0
  5  6  1  0
  6  7  2  0
  7  8  1  0
  8  9  1  0
  9 10  1  0
 10 11  1  0
 11 12  2  0
 12 13  1  0
 13 14  2  0
 14 15  1  0
 15 16  1  0
 16 17  1  0
 17 18  2  0
 18 19  1  0
  8 20  2  0
 20 21  1  0
 21 22  2  0
 22 23  1  0
 23  4  1  0
 22  6  1  0
 19 11  1  0
 19 15  2  0
  1 24  1  0
  1 25  1  0
  7 26  1  0
  9 27  1  0
 10 28  1  0
 10 29  1  0
 12 30  1  0
 13 31  1  0
 14 32  1  0
 16 33  1  0
 17 34  1  0
 18 35  1  0
 20 36  1  0
 21 37  1  0
M  END
>  <Energy>  (1043) 
486.26944953950476

>  <compound_id>  (1043) 
14455

>  <target_id>  (1043) 
1

>  <reference_id>  (1043) 
2

>  <inspiration_ids>  (1043) 
[2, 97]

>  <energy_score>  (1043) 
400.0224409543982

>  <distance_score>  (1043) 
12.513501120875267

>  <path>  (1043) 
/opt/xchem-fragalysis-2/maxwin/BulkDock/SCRATCH/511022/C14455-P2/C14455-P2.minimised.mol

>  <scratch_subdir>  (1043) 
/opt/xchem-fragalysis-2/maxwin/BulkDock/SCRATCH/511022/C14455-P2

>  <fragmenstein_runtime>  (1043) 
19.461859941482544

>  <fragmenstein_outcome>  (1043) 
too moved

>  <fragmenstein_mode>  (1043) 
expansion

>  <fragmenstein_error>  (1043) 


$$$$
C14455-P97
     RDKit          3D

 37 40  0  0  0  0  0  0  0  0999 V2000
  -10.2777  -21.1105    2.9873 N   0  0  0  0  0  0  0  0  0  0  0  0
   -9.7920  -19.7964    3.3753 C   0  0  0  0  0  0  0  0  0  0  0  0
  -10.0331  -18.7140    2.9246 O   0  0  0  0  0  0  0  0  0  0  0  0
   -8.8304  -19.9205    4.5162 C   0  0  0  0  0  0  0  0  0  0  0  0
   -8.3030  -18.8715    5.1744 N   0  0  0  0  0  0  0  0  0  0  0  0
   -7.3837  -19.2401    6.1746 C   0  0  0  0  0  0  0  0  0  0  0  0
   -6.2486  -18.7697    7.8831 C   0  0  0  0  0  0  0  0  0  0  0  0
   -4.7557  -19.9967    8.8060 C   0  0  0  0  0  0  0  0  0  0  0  0
   -3.1497  -18.8668    8.8435 N   0  0  0  0  0  0  0  0  0  0  0  0
   -1.8805  -17.7311    9.9463 C   0  0  0  0  0  0  0  0  0  0  0  0
   -0.3491  -16.3908   10.2780 C   0  0  0  0  0  0  0  0  0  0  0  0
    1.1286  -16.4300    9.6278 C   0  0  0  0  0  0  0  0  0  0  0  0
    2.4438  -15.2983    9.5000 C   0  0  0  0  0  0  0  0  0  0  0  0
    2.6034  -13.6431   10.0198 C   0  0  0  0  0  0  0  0  0  0  0  0
    1.1716  -13.5035   11.1861 C   0  0  0  0  0  0  0  0  0  0  0  0
    0.4650  -12.4423   11.6895 N   0  0  0  0  0  0  0  0  0  0  0  0
    0.0494  -13.0778   12.7760 C   0  0  0  0  0  0  0  0  0  0  0  0
   -0.0006  -14.4301   12.5306 C   0  0  0  0  0  0  0  0  0  0  0  0
    0.0233  -14.8649   11.2060 C   0  0  0  0  0  0  0  0  0  0  0  0
   -5.0425  -21.7730    8.0831 C   0  0  0  0  0  0  0  0  0  0  0  0
   -6.5110  -22.3995    6.8344 C   0  0  0  0  0  0  0  0  0  0  0  0
   -7.6338  -21.1481    5.8664 C   0  0  0  0  0  0  0  0  0  0  0  0
   -8.5020  -21.2333    4.8415 O   0  0  0  0  0  0  0  0  0  0  0  0
   -9.7630  -21.8349    3.5265 H   0  0  0  0  0  0  0  0  0  0  0  0
   -9.9451  -21.8122    3.6780 H   0  0  0  0  0  0  0  0  0  0  0  0
   -6.7315  -18.0641    8.5230 H   0  0  0  0  0  0  0  0  0  0  0  0
   -2.5336  -19.5468    8.3882 H   0  0  0  0  0  0  0  0  0  0  0  0
   -2.6054  -16.9740   10.2128 H   0  0  0  0  0  0  0  0  0  0  0  0
   -1.6752  -18.4436   10.7502 H   0  0  0  0  0  0  0  0  0  0  0  0
    1.3503  -17.3594    9.0822 H   0  0  0  0  0  0  0  0  0  0  0  0
    3.3361  -15.7325    9.0353 H   0  0  0  0  0  0  0  0  0  0  0  0
    3.3782  -12.9015    9.9832 H   0  0  0  0  0  0  0  0  0  0  0  0
    0.6995  -11.4601   11.6062 H   0  0  0  0  0  0  0  0  0  0  0  0
   -0.1358  -12.5034   13.6282 H   0  0  0  0  0  0  0  0  0  0  0  0
   -0.0836  -15.0598   13.3353 H   0  0  0  0  0  0  0  0  0  0  0  0
   -4.2228  -22.4976    8.1250 H   0  0  0  0  0  0  0  0  0  0  0  0
   -6.4445  -23.3876    6.3648 H   0  0  0  0  0  0  0  0  0  0  0  0
  1  2  1  0
  2  3  2  0
  2  4  1  0
  4  5  2  0
  5  6  1  0
  6  7  2  0
  7  8  1  0
  8  9  1  0
  9 10  1  0
 10 11  1  0
 11 12  2  0
 12 13  1  0
 13 14  2  0
 14 15  1  0
 15 16  1  0
 16 17  1  0
 17 18  2  0
 18 19  1  0
  8 20  2  0
 20 21  1  0
 21 22  2  0
 22 23  1  0
 23  4  1  0
 22  6  1  0
 19 11  1  0
 19 15  2  0
  1 24  1  0
  1 25  1  0
  7 26  1  0
  9 27  1  0
 10 28  1  0
 10 29  1  0
 12 30  1  0
 13 31  1  0
 14 32  1  0
 16 33  1  0
 17 34  1  0
 18 35  1  0
 20 36  1  0
 21 37  1  0
M  END
>  <Energy>  (1044) 
1724.8397147550004

>  <compound_id>  (1044) 
14455

>  <target_id>  (1044) 
1

>  <reference_id>  (1044) 
97

>  <inspiration_ids>  (1044) 
[2, 97]

>  <energy_score>  (1044) 
1638.5927061699101

>  <distance_score>  (1044) 
13.756071824959276

>  <path>  (1044) 
/opt/xchem-fragalysis-2/maxwin/BulkDock/SCRATCH/511022/C14455-P97/C14455-P97.minimised.mol

>  <scratch_subdir>  (1044) 
/opt/xchem-fragalysis-2/maxwin/BulkDock/SCRATCH/511022/C14455-P97

>  <fragmenstein_runtime>  (1044) 
17.34545636177063

>  <fragmenstein_outcome>  (1044) 
too moved

>  <fragmenstein_mode>  (1044) 
expansion

>  <fragmenstein_error>  (1044) 


$$$$
C39460-P2
     RDKit          3D

 43 46  0  0  0  0  0  0  0  0999 V2000
    3.6152  -11.0528   10.8452 C   0  0  0  0  0  0  0  0  0  0  0  0
    3.2611  -10.0479   12.1971 N   0  0  0  0  0  0  0  0  0  0  0  0
    1.6408  -10.3841   11.1079 C   0  0  0  0  0  0  0  0  0  0  0  0
   -0.2131  -11.2500   10.8543 C   0  0  0  0  0  0  0  0  0  0  0  0
   -1.7594  -10.9717    9.5426 N   0  0  0  0  0  0  0  0  0  0  0  0
   -3.1411  -11.6939    8.6355 C   0  0  0  0  0  0  0  0  0  0  0  0
   -3.8529  -11.1638    7.5372 N   0  0  0  0  0  0  0  0  0  0  0  0
   -4.9847  -11.8159    7.1748 C   0  0  0  0  0  0  0  0  0  0  0  0
   -6.0621  -11.3473    6.4225 C   0  0  0  0  0  0  0  0  0  0  0  0
   -7.3054  -11.8892    6.7191 C   0  0  0  0  0  0  0  0  0  0  0  0
   -7.4084  -12.9026    7.6637 C   0  0  0  0  0  0  0  0  0  0  0  0
   -6.2785  -13.5731    8.1673 C   0  0  0  0  0  0  0  0  0  0  0  0
   -5.0557  -12.9678    7.9000 C   0  0  0  0  0  0  0  0  0  0  0  0
   -3.7929  -13.0761    8.6344 O   0  0  0  0  0  0  0  0  0  0  0  0
    4.1551   -8.3009   12.8013 C   0  0  0  0  0  0  0  0  0  0  0  0
    3.5912   -7.3712   12.2829 O   0  0  0  0  0  0  0  0  0  0  0  0
    5.6692   -7.5325   14.0424 C   0  0  0  0  0  0  0  0  0  0  0  0
    6.7958   -8.1228   13.9754 C   0  0  0  0  0  0  0  0  0  0  0  0
    8.1145   -7.4188   14.5402 C   0  0  0  0  0  0  0  0  0  0  0  0
    8.1717   -6.2633   15.0060 C   0  0  0  0  0  0  0  0  0  0  0  0
    7.4093   -5.5587   15.8993 C   0  0  0  0  0  0  0  0  0  0  0  0
    7.9686   -3.7079   15.4600 C   0  0  0  0  0  0  0  0  0  0  0  0
    6.8795   -3.0937   14.9132 C   0  0  0  0  0  0  0  0  0  0  0  0
    5.9432   -4.1504   15.3852 N   0  0  0  0  0  0  0  0  0  0  0  0
    6.1836   -6.1688   15.4623 C   0  0  0  0  0  0  0  0  0  0  0  0
    2.8258  -11.7591   10.5401 H   0  0  0  0  0  0  0  0  0  0  0  0
    4.1385  -11.9472   11.0895 H   0  0  0  0  0  0  0  0  0  0  0  0
    3.8853  -10.4555    9.9714 H   0  0  0  0  0  0  0  0  0  0  0  0
    1.1728   -9.3920   11.1715 H   0  0  0  0  0  0  0  0  0  0  0  0
    2.0051  -10.0843   10.1478 H   0  0  0  0  0  0  0  0  0  0  0  0
   -0.0506  -12.3185   10.9368 H   0  0  0  0  0  0  0  0  0  0  0  0
    0.1265  -10.5200   10.1237 H   0  0  0  0  0  0  0  0  0  0  0  0
   -1.8500   -9.9883    9.2788 H   0  0  0  0  0  0  0  0  0  0  0  0
   -5.9723  -10.4453    5.8292 H   0  0  0  0  0  0  0  0  0  0  0  0
   -8.2006  -11.4346    6.3013 H   0  0  0  0  0  0  0  0  0  0  0  0
   -8.4074  -13.1215    8.0178 H   0  0  0  0  0  0  0  0  0  0  0  0
   -6.3372  -14.3418    8.9167 H   0  0  0  0  0  0  0  0  0  0  0  0
    6.7428   -9.2069   13.9045 H   0  0  0  0  0  0  0  0  0  0  0  0
    9.1109   -7.8143   14.9033 H   0  0  0  0  0  0  0  0  0  0  0  0
    8.7334   -5.5524   14.4036 H   0  0  0  0  0  0  0  0  0  0  0  0
    8.9769   -3.5414   15.0548 H   0  0  0  0  0  0  0  0  0  0  0  0
    6.5698   -2.1854   14.4119 H   0  0  0  0  0  0  0  0  0  0  0  0
    4.9664   -3.8506   15.5365 H   0  0  0  0  0  0  0  0  0  0  0  0
  1  2  1  0
  2  3  1  0
  3  4  1  0
  4  5  1  0
  5  6  1  0
  6  7  2  0
  7  8  1  0
  8  9  2  0
  9 10  1  0
 10 11  2  0
 11 12  1  0
 12 13  2  0
 13 14  1  0
  2 15  1  0
 15 16  2  0
 15 17  1  0
 17 18  2  0
 18 19  1  0
 19 20  2  0
 20 21  1  0
 21 22  1  0
 22 23  2  0
 23 24  1  0
 24 25  1  0
 14  6  1  0
 25 17  1  0
 13  8  1  0
 25 21  2  0
  1 26  1  0
  1 27  1  0
  1 28  1  0
  3 29  1  0
  3 30  1  0
  4 31  1  0
  4 32  1  0
  5 33  1  0
  9 34  1  0
 10 35  1  0
 11 36  1  0
 12 37  1  0
 18 38  1  0
 19 39  1  0
 20 40  1  0
 22 41  1  0
 23 42  1  0
 24 43  1  0
M  END
>  <Energy>  (1045) 
1525.3835352590017

>  <compound_id>  (1045) 
39460

>  <target_id>  (1045) 
1

>  <reference_id>  (1045) 
2

>  <inspiration_ids>  (1045) 
[2, 97]

>  <energy_score>  (1045) 
1482.8051634813148

>  <distance_score>  (1045) 
9.300369728170628

>  <path>  (1045) 
/opt/xchem-fragalysis-2/maxwin/BulkDock/SCRATCH/511022/C39460-P2/C39460-P2.minimised.mol

>  <scratch_subdir>  (1045) 
/opt/xchem-fragalysis-2/maxwin/BulkDock/SCRATCH/511022/C39460-P2

>  <fragmenstein_runtime>  (1045) 
16.103034496307373

>  <fragmenstein_outcome>  (1045) 
too moved

>  <fragmenstein_mode>  (1045) 
expansion

>  <fragmenstein_error>  (1045) 


$$$$
C39460-P97
     RDKit          3D

 43 46  0  0  0  0  0  0  0  0999 V2000
    0.3346  -15.1117   12.0266 C   0  0  0  0  0  0  0  0  0  0  0  0
   -0.4650  -13.9838   12.3585 N   0  0  0  0  0  0  0  0  0  0  0  0
   -1.7297  -14.9026   10.8712 C   0  0  0  0  0  0  0  0  0  0  0  0
   -2.8553  -16.4172    9.6839 C   0  0  0  0  0  0  0  0  0  0  0  0
   -4.3488  -17.4039    8.4933 N   0  0  0  0  0  0  0  0  0  0  0  0
   -6.1559  -18.2213    8.2419 C   0  0  0  0  0  0  0  0  0  0  0  0
   -7.6413  -17.8943    7.5712 N   0  0  0  0  0  0  0  0  0  0  0  0
   -8.3507  -18.6987    5.9130 C   0  0  0  0  0  0  0  0  0  0  0  0
   -9.5427  -18.6940    4.9427 C   0  0  0  0  0  0  0  0  0  0  0  0
   -9.9505  -19.7624    4.1051 C   0  0  0  0  0  0  0  0  0  0  0  0
   -9.2506  -20.9457    4.1376 C   0  0  0  0  0  0  0  0  0  0  0  0
   -8.1635  -21.0266    4.9790 C   0  0  0  0  0  0  0  0  0  0  0  0
   -7.9644  -19.8706    5.7850 C   0  0  0  0  0  0  0  0  0  0  0  0
   -6.6778  -18.8206    6.4603 O   0  0  0  0  0  0  0  0  0  0  0  0
    0.6507  -12.2823   12.3758 C   0  0  0  0  0  0  0  0  0  0  0  0
    0.6244  -11.7786   11.2906 O   0  0  0  0  0  0  0  0  0  0  0  0
    2.0688  -11.1735   13.6323 C   0  0  0  0  0  0  0  0  0  0  0  0
    3.8273  -10.8939   13.8436 C   0  0  0  0  0  0  0  0  0  0  0  0
    4.9964  -10.1119   13.9355 C   0  0  0  0  0  0  0  0  0  0  0  0
    5.0389   -8.6479   13.8876 C   0  0  0  0  0  0  0  0  0  0  0  0
    3.8236   -8.2110   14.1459 C   0  0  0  0  0  0  0  0  0  0  0  0
    3.5377   -6.6458   15.1036 C   0  0  0  0  0  0  0  0  0  0  0  0
    2.9367   -6.9523   16.2514 C   0  0  0  0  0  0  0  0  0  0  0  0
    2.6729   -8.3200   16.0321 N   0  0  0  0  0  0  0  0  0  0  0  0
    2.9290   -9.6824   14.6739 C   0  0  0  0  0  0  0  0  0  0  0  0
   -0.1944  -16.0394   12.2916 H   0  0  0  0  0  0  0  0  0  0  0  0
    1.0460  -15.0657   12.8380 H   0  0  0  0  0  0  0  0  0  0  0  0
    0.8120  -15.2437   11.0787 H   0  0  0  0  0  0  0  0  0  0  0  0
   -2.1929  -15.3824   11.7354 H   0  0  0  0  0  0  0  0  0  0  0  0
   -0.9071  -15.4856   10.4746 H   0  0  0  0  0  0  0  0  0  0  0  0
   -2.4299  -17.3296   10.1377 H   0  0  0  0  0  0  0  0  0  0  0  0
   -2.2232  -16.3536    8.7995 H   0  0  0  0  0  0  0  0  0  0  0  0
   -3.9382  -18.2854    8.8517 H   0  0  0  0  0  0  0  0  0  0  0  0
  -10.2851  -17.8953    4.9680 H   0  0  0  0  0  0  0  0  0  0  0  0
  -10.8351  -19.6542    3.4827 H   0  0  0  0  0  0  0  0  0  0  0  0
   -9.5254  -21.7766    3.4953 H   0  0  0  0  0  0  0  0  0  0  0  0
   -7.5065  -21.8880    4.9883 H   0  0  0  0  0  0  0  0  0  0  0  0
    4.3513  -11.7619   14.4145 H   0  0  0  0  0  0  0  0  0  0  0  0
    5.8512  -10.7338   13.8346 H   0  0  0  0  0  0  0  0  0  0  0  0
    5.9526   -8.0459   13.9030 H   0  0  0  0  0  0  0  0  0  0  0  0
    3.3213   -5.6791   14.6453 H   0  0  0  0  0  0  0  0  0  0  0  0
    2.5153   -6.4230   17.0947 H   0  0  0  0  0  0  0  0  0  0  0  0
    2.5821   -8.7265   16.9672 H   0  0  0  0  0  0  0  0  0  0  0  0
  1  2  1  0
  2  3  1  0
  3  4  1  0
  4  5  1  0
  5  6  1  0
  6  7  2  0
  7  8  1  0
  8  9  2  0
  9 10  1  0
 10 11  2  0
 11 12  1  0
 12 13  2  0
 13 14  1  0
  2 15  1  0
 15 16  2  0
 15 17  1  0
 17 18  2  0
 18 19  1  0
 19 20  2  0
 20 21  1  0
 21 22  1  0
 22 23  2  0
 23 24  1  0
 24 25  1  0
 14  6  1  0
 25 17  1  0
 13  8  1  0
 25 21  2  0
  1 26  1  0
  1 27  1  0
  1 28  1  0
  3 29  1  0
  3 30  1  0
  4 31  1  0
  4 32  1  0
  5 33  1  0
  9 34  1  0
 10 35  1  0
 11 36  1  0
 12 37  1  0
 18 38  1  0
 19 39  1  0
 20 40  1  0
 22 41  1  0
 23 42  1  0
 24 43  1  0
M  END
>  <Energy>  (1046) 
2387.5894922907178

>  <compound_id>  (1046) 
39460

>  <target_id>  (1046) 
1

>  <reference_id>  (1046) 
97

>  <inspiration_ids>  (1046) 
[2, 97]

>  <energy_score>  (1046) 
2345.011120513068

>  <distance_score>  (1046) 
9.450772082330406

>  <path>  (1046) 
/opt/xchem-fragalysis-2/maxwin/BulkDock/SCRATCH/511022/C39460-P97/C39460-P97.minimised.mol

>  <scratch_subdir>  (1046) 
/opt/xchem-fragalysis-2/maxwin/BulkDock/SCRATCH/511022/C39460-P97

>  <fragmenstein_runtime>  (1046) 
17.787013292312622

>  <fragmenstein_outcome>  (1046) 
too moved

>  <fragmenstein_mode>  (1046) 
expansion

>  <fragmenstein_error>  (1046) 


$$$$
C14456-P2
     RDKit          3D

 35 38  0  0  0  0  0  0  0  0999 V2000
    2.7594  -17.7447    7.5437 C   0  0  0  0  0  0  0  0  0  0  0  0
    2.0739  -17.1584    8.7110 C   0  0  0  0  0  0  0  0  0  0  0  0
    2.2031  -15.9750    9.2953 N   0  0  0  0  0  0  0  0  0  0  0  0
    1.0953  -15.8678   10.1482 C   0  0  0  0  0  0  0  0  0  0  0  0
    0.5049  -14.7176   10.8749 C   0  0  0  0  0  0  0  0  0  0  0  0
    1.0064  -12.9810   11.3437 C   0  0  0  0  0  0  0  0  0  0  0  0
    0.1726  -12.4996   12.0882 O   0  0  0  0  0  0  0  0  0  0  0  0
    2.5853  -12.2183   10.8890 N   0  0  0  0  0  0  0  0  0  0  0  0
    3.3596  -10.7504   11.4737 C   0  0  0  0  0  0  0  0  0  0  0  0
    4.9294  -11.0691   12.5909 C   0  0  0  0  0  0  0  0  0  0  0  0
    5.2392  -10.7098   13.8125 C   0  0  0  0  0  0  0  0  0  0  0  0
    4.2475   -9.9123   13.8560 C   0  0  0  0  0  0  0  0  0  0  0  0
    4.0566   -8.8116   12.9967 C   0  0  0  0  0  0  0  0  0  0  0  0
    4.4752   -7.5712   13.0546 N   0  0  0  0  0  0  0  0  0  0  0  0
    3.9943   -6.6972   11.9922 C   0  0  0  0  0  0  0  0  0  0  0  0
    3.1472   -7.4753   11.3153 C   0  0  0  0  0  0  0  0  0  0  0  0
    3.2499   -9.1167   11.3918 C   0  0  0  0  0  0  0  0  0  0  0  0
   -0.8262  -15.0270   11.0432 C   0  0  0  0  0  0  0  0  0  0  0  0
   -1.5009  -16.2101   10.7309 C   0  0  0  0  0  0  0  0  0  0  0  0
   -0.8812  -17.3724   10.3878 C   0  0  0  0  0  0  0  0  0  0  0  0
    0.3947  -17.0857    9.9962 C   0  0  0  0  0  0  0  0  0  0  0  0
    1.0609  -17.9205    9.1734 O   0  0  0  0  0  0  0  0  0  0  0  0
    2.0758  -17.8166    6.6925 H   0  0  0  0  0  0  0  0  0  0  0  0
    3.6094  -17.1226    7.2481 H   0  0  0  0  0  0  0  0  0  0  0  0
    3.1345  -18.7456    7.7772 H   0  0  0  0  0  0  0  0  0  0  0  0
    3.1256  -12.8675   10.3231 H   0  0  0  0  0  0  0  0  0  0  0  0
    5.2457  -12.1358   12.8755 H   0  0  0  0  0  0  0  0  0  0  0  0
    5.2178  -11.5423   14.4871 H   0  0  0  0  0  0  0  0  0  0  0  0
    3.4067  -10.4296   14.2603 H   0  0  0  0  0  0  0  0  0  0  0  0
    5.3894   -7.5257   13.4861 H   0  0  0  0  0  0  0  0  0  0  0  0
    4.1478   -5.6267   11.9272 H   0  0  0  0  0  0  0  0  0  0  0  0
    2.4697   -6.9699   10.6494 H   0  0  0  0  0  0  0  0  0  0  0  0
   -1.4224  -14.1859   11.1929 H   0  0  0  0  0  0  0  0  0  0  0  0
   -2.5619  -16.1453   10.6732 H   0  0  0  0  0  0  0  0  0  0  0  0
   -1.3960  -18.2913   10.1426 H   0  0  0  0  0  0  0  0  0  0  0  0
  1  2  1  0
  2  3  2  0
  3  4  1  0
  4  5  2  0
  5  6  1  0
  6  7  2  0
  6  8  1  0
  8  9  1  0
  9 10  2  0
 10 11  1  0
 11 12  2  0
 12 13  1  0
 13 14  1  0
 14 15  1  0
 15 16  2  0
 16 17  1  0
  5 18  1  0
 18 19  2  0
 19 20  1  0
 20 21  2  0
 21 22  1  0
 22  2  1  0
 21  4  1  0
 17  9  1  0
 17 13  2  0
  1 23  1  0
  1 24  1  0
  1 25  1  0
  8 26  1  0
 10 27  1  0
 11 28  1  0
 12 29  1  0
 14 30  1  0
 15 31  1  0
 16 32  1  0
 18 33  1  0
 19 34  1  0
 20 35  1  0
M  END
>  <Energy>  (1047) 
610.26317771611639

>  <compound_id>  (1047) 
14456

>  <target_id>  (1047) 
1

>  <reference_id>  (1047) 
2

>  <inspiration_ids>  (1047) 
[2, 97]

>  <energy_score>  (1047) 
538.1021919094713

>  <distance_score>  (1047) 
11.895739419584238

>  <path>  (1047) 
/opt/xchem-fragalysis-2/maxwin/BulkDock/SCRATCH/511022/C14456-P2/C14456-P2.minimised.mol

>  <scratch_subdir>  (1047) 
/opt/xchem-fragalysis-2/maxwin/BulkDock/SCRATCH/511022/C14456-P2

>  <fragmenstein_runtime>  (1047) 
13.507227420806885

>  <fragmenstein_outcome>  (1047) 
too moved

>  <fragmenstein_mode>  (1047) 
expansion

>  <fragmenstein_error>  (1047) 


$$$$
C14456-P97
     RDKit          3D

 35 38  0  0  0  0  0  0  0  0999 V2000
    0.0871  -18.2523   12.4467 C   0  0  0  0  0  0  0  0  0  0  0  0
    0.6397  -16.8793   12.1784 C   0  0  0  0  0  0  0  0  0  0  0  0
    0.5876  -15.6154   12.7674 N   0  0  0  0  0  0  0  0  0  0  0  0
    0.8170  -14.5877   11.8229 C   0  0  0  0  0  0  0  0  0  0  0  0
    1.1217  -12.9149   11.5320 C   0  0  0  0  0  0  0  0  0  0  0  0
    2.1440  -11.1429   11.9308 C   0  0  0  0  0  0  0  0  0  0  0  0
    1.7449  -10.3006   11.1744 O   0  0  0  0  0  0  0  0  0  0  0  0
    3.4469  -10.4565   13.3420 N   0  0  0  0  0  0  0  0  0  0  0  0
    4.0570   -8.6269   13.7988 C   0  0  0  0  0  0  0  0  0  0  0  0
    3.5363   -7.2566   15.0150 C   0  0  0  0  0  0  0  0  0  0  0  0
    4.1193   -6.3677   16.3368 C   0  0  0  0  0  0  0  0  0  0  0  0
    5.5664   -6.4229   16.4638 C   0  0  0  0  0  0  0  0  0  0  0  0
    6.1051   -7.0482   15.0418 C   0  0  0  0  0  0  0  0  0  0  0  0
    6.9589   -7.7879   14.4408 N   0  0  0  0  0  0  0  0  0  0  0  0
    6.9119   -7.7257   12.9459 C   0  0  0  0  0  0  0  0  0  0  0  0
    5.6789   -7.3179   13.0272 C   0  0  0  0  0  0  0  0  0  0  0  0
    5.3402   -8.1270   13.9490 C   0  0  0  0  0  0  0  0  0  0  0  0
   -0.2326  -13.0712   11.5156 C   0  0  0  0  0  0  0  0  0  0  0  0
   -1.2162  -14.4295   11.0060 C   0  0  0  0  0  0  0  0  0  0  0  0
   -0.9275  -15.6670   10.5546 C   0  0  0  0  0  0  0  0  0  0  0  0
    0.3870  -15.5837   10.8010 C   0  0  0  0  0  0  0  0  0  0  0  0
    1.0276  -16.7533   10.8861 O   0  0  0  0  0  0  0  0  0  0  0  0
   -0.9578  -18.2000   12.7528 H   0  0  0  0  0  0  0  0  0  0  0  0
    0.6584  -18.7988   13.1971 H   0  0  0  0  0  0  0  0  0  0  0  0
    0.1138  -18.8590   11.5337 H   0  0  0  0  0  0  0  0  0  0  0  0
    3.7835  -11.2176   13.8604 H   0  0  0  0  0  0  0  0  0  0  0  0
    3.2408   -6.2174   14.6215 H   0  0  0  0  0  0  0  0  0  0  0  0
    3.4557   -5.7378   16.9142 H   0  0  0  0  0  0  0  0  0  0  0  0
    6.2155   -6.0190   17.2117 H   0  0  0  0  0  0  0  0  0  0  0  0
    7.8502   -7.5702   14.8324 H   0  0  0  0  0  0  0  0  0  0  0  0
    7.7183   -7.7181   12.2133 H   0  0  0  0  0  0  0  0  0  0  0  0
    4.8500   -6.8461   12.3552 H   0  0  0  0  0  0  0  0  0  0  0  0
   -0.6087  -12.0858   11.8052 H   0  0  0  0  0  0  0  0  0  0  0  0
   -2.2763  -14.6109   11.1693 H   0  0  0  0  0  0  0  0  0  0  0  0
   -1.5307  -16.5092   10.2821 H   0  0  0  0  0  0  0  0  0  0  0  0
  1  2  1  0
  2  3  2  0
  3  4  1  0
  4  5  2  0
  5  6  1  0
  6  7  2  0
  6  8  1  0
  8  9  1  0
  9 10  2  0
 10 11  1  0
 11 12  2  0
 12 13  1  0
 13 14  1  0
 14 15  1  0
 15 16  2  0
 16 17  1  0
  5 18  1  0
 18 19  2  0
 19 20  1  0
 20 21  2  0
 21 22  1  0
 22  2  1  0
 21  4  1  0
 17  9  1  0
 17 13  2  0
  1 23  1  0
  1 24  1  0
  1 25  1  0
  8 26  1  0
 10 27  1  0
 11 28  1  0
 12 29  1  0
 14 30  1  0
 15 31  1  0
 16 32  1  0
 18 33  1  0
 19 34  1  0
 20 35  1  0
M  END
>  <Energy>  (1048) 
1154.4988869003132

>  <compound_id>  (1048) 
14456

>  <target_id>  (1048) 
1

>  <reference_id>  (1048) 
97

>  <inspiration_ids>  (1048) 
[2, 97]

>  <energy_score>  (1048) 
1082.3379010936744

>  <distance_score>  (1048) 
11.193269124711478

>  <path>  (1048) 
/opt/xchem-fragalysis-2/maxwin/BulkDock/SCRATCH/511022/C14456-P97/C14456-P97.minimised.mol

>  <scratch_subdir>  (1048) 
/opt/xchem-fragalysis-2/maxwin/BulkDock/SCRATCH/511022/C14456-P97

>  <fragmenstein_runtime>  (1048) 
10.884024620056152

>  <fragmenstein_outcome>  (1048) 
too moved

>  <fragmenstein_mode>  (1048) 
expansion

>  <fragmenstein_error>  (1048) 


$$$$
C9624-P114
     RDKit          3D

 38 39  0  0  0  0  0  0  0  0999 V2000
    9.5852   -1.1721   29.0953 C   0  0  0  0  0  0  0  0  0  0  0  0
    8.8348   -2.0516   28.1030 C   0  0  0  0  0  0  0  0  0  0  0  0
    8.7647   -1.3398   26.6843 C   0  0  0  0  0  0  0  0  0  0  0  0
    9.9022   -0.8312   25.8447 N   0  0  0  0  0  0  0  0  0  0  0  0
   11.3079   -1.4508   25.5581 C   0  0  0  0  0  0  0  0  0  0  0  0
   11.8173   -2.4118   25.9960 O   0  0  0  0  0  0  0  0  0  0  0  0
   12.1075   -0.6809   24.4001 C   0  0  0  0  0  0  0  0  0  0  0  0
   13.3426   -1.2050   23.9651 C   0  0  0  0  0  0  0  0  0  0  0  0
   14.0673   -0.5961   22.9273 C   0  0  0  0  0  0  0  0  0  0  0  0
   13.5096    0.4791   22.2484 C   0  0  0  0  0  0  0  0  0  0  0  0
   12.2707    0.9312   22.7027 C   0  0  0  0  0  0  0  0  0  0  0  0
   11.5383    0.3866   23.7418 N   0  0  0  0  0  0  0  0  0  0  0  0
    7.4335   -2.3712   28.6535 N   0  0  0  0  0  0  0  0  0  0  0  0
    6.9924   -3.0574   30.0268 C   0  0  0  0  0  0  0  0  0  0  0  0
    7.6407   -3.3980   30.9524 O   0  0  0  0  0  0  0  0  0  0  0  0
    5.4138   -3.1487   30.0541 C   0  0  0  0  0  0  0  0  0  0  0  0
    4.7153   -3.8453   31.2698 C   0  0  0  0  0  0  0  0  0  0  0  0
    3.4067   -4.0634   31.4032 N   0  0  0  0  0  0  0  0  0  0  0  0
    3.2271   -4.7791   32.5679 C   0  0  0  0  0  0  0  0  0  0  0  0
    4.4395   -4.9914   33.1737 C   0  0  0  0  0  0  0  0  0  0  0  0
    5.3729   -4.3820   32.3566 N   0  0  0  0  0  0  0  0  0  0  0  0
    9.0602   -0.2244   29.2569 H   0  0  0  0  0  0  0  0  0  0  0  0
    9.6777   -1.6677   30.0670 H   0  0  0  0  0  0  0  0  0  0  0  0
   10.5949   -0.9489   28.7365 H   0  0  0  0  0  0  0  0  0  0  0  0
    9.3503   -3.0131   28.0068 H   0  0  0  0  0  0  0  0  0  0  0  0
    8.2285   -2.0279   26.0236 H   0  0  0  0  0  0  0  0  0  0  0  0
    8.1146   -0.4651   26.8054 H   0  0  0  0  0  0  0  0  0  0  0  0
    9.7488   -0.0375   25.2287 H   0  0  0  0  0  0  0  0  0  0  0  0
   13.7489   -2.0848   24.4572 H   0  0  0  0  0  0  0  0  0  0  0  0
   15.0257   -1.0055   22.6229 H   0  0  0  0  0  0  0  0  0  0  0  0
   14.0218    0.9619   21.4261 H   0  0  0  0  0  0  0  0  0  0  0  0
   11.8043    1.7969   22.2390 H   0  0  0  0  0  0  0  0  0  0  0  0
    6.6078   -2.1355   28.1090 H   0  0  0  0  0  0  0  0  0  0  0  0
    5.1017   -3.6839   29.1510 H   0  0  0  0  0  0  0  0  0  0  0  0
    5.0278   -2.1240   30.0032 H   0  0  0  0  0  0  0  0  0  0  0  0
    2.2458   -5.1046   32.8894 H   0  0  0  0  0  0  0  0  0  0  0  0
    4.7255   -5.5014   34.0819 H   0  0  0  0  0  0  0  0  0  0  0  0
    6.3768   -4.3428   32.4983 H   0  0  0  0  0  0  0  0  0  0  0  0
  1  2  1  0
  2  3  1  0
  3  4  1  0
  4  5  1  0
  5  6  2  0
  5  7  1  0
  7  8  2  0
  8  9  1  0
  9 10  2  0
 10 11  1  0
 11 12  2  0
  2 13  1  0
 13 14  1  0
 14 15  2  0
 14 16  1  0
 16 17  1  0
 17 18  2  0
 18 19  1  0
 19 20  2  0
 20 21  1  0
 12  7  1  0
 21 17  1  0
  1 22  1  0
  1 23  1  0
  1 24  1  0
  2 25  1  0
  3 26  1  0
  3 27  1  0
  4 28  1  0
  8 29  1  0
  9 30  1  0
 10 31  1  0
 11 32  1  0
 13 33  1  0
 16 34  1  0
 16 35  1  0
 19 36  1  0
 20 37  1  0
 21 38  1  0
M  END
>  <Energy>  (1049) 
103.37598299222671

>  <compound_id>  (1049) 
9624

>  <target_id>  (1049) 
1

>  <reference_id>  (1049) 
114

>  <inspiration_ids>  (1049) 
[114, 56]

>  <energy_score>  (1049) 
28.27941057971742

>  <distance_score>  (1049) 
8.627945278119357

>  <path>  (1049) 
/opt/xchem-fragalysis-2/maxwin/BulkDock/SCRATCH/511022/C9624-P114/C9624-P114.minimised.mol

>  <scratch_subdir>  (1049) 
/opt/xchem-fragalysis-2/maxwin/BulkDock/SCRATCH/511022/C9624-P114

>  <fragmenstein_runtime>  (1049) 
8.044990539550781

>  <fragmenstein_outcome>  (1049) 
too moved

>  <fragmenstein_mode>  (1049) 
expansion

>  <fragmenstein_error>  (1049) 


$$$$
C9624-P56
     RDKit          3D

 38 39  0  0  0  0  0  0  0  0999 V2000
    9.1883   -1.5944   26.8599 C   0  0  0  0  0  0  0  0  0  0  0  0
    9.3426   -2.6344   27.9664 C   0  0  0  0  0  0  0  0  0  0  0  0
   10.1965   -3.8695   27.5667 C   0  0  0  0  0  0  0  0  0  0  0  0
   11.0379   -3.7431   26.3886 N   0  0  0  0  0  0  0  0  0  0  0  0
   12.3922   -3.2782   26.2410 C   0  0  0  0  0  0  0  0  0  0  0  0
   13.1991   -2.9503   27.0622 O   0  0  0  0  0  0  0  0  0  0  0  0
   12.8877   -3.3130   24.7978 C   0  0  0  0  0  0  0  0  0  0  0  0
   12.7309   -4.4627   24.0241 C   0  0  0  0  0  0  0  0  0  0  0  0
   13.2999   -4.5022   22.7506 C   0  0  0  0  0  0  0  0  0  0  0  0
   14.0005   -3.3987   22.2803 C   0  0  0  0  0  0  0  0  0  0  0  0
   14.1081   -2.2962   23.1142 C   0  0  0  0  0  0  0  0  0  0  0  0
   13.5756   -2.2280   24.3586 N   0  0  0  0  0  0  0  0  0  0  0  0
    8.0074   -3.0373   28.4308 N   0  0  0  0  0  0  0  0  0  0  0  0
    7.5238   -3.3771   29.7556 C   0  0  0  0  0  0  0  0  0  0  0  0
    8.1088   -3.4918   30.7953 O   0  0  0  0  0  0  0  0  0  0  0  0
    5.9994   -3.5959   29.6752 C   0  0  0  0  0  0  0  0  0  0  0  0
    5.3292   -4.1211   30.9148 C   0  0  0  0  0  0  0  0  0  0  0  0
    4.1264   -4.6724   30.9537 N   0  0  0  0  0  0  0  0  0  0  0  0
    3.8746   -4.9413   32.2776 C   0  0  0  0  0  0  0  0  0  0  0  0
    4.9505   -4.5862   33.0524 C   0  0  0  0  0  0  0  0  0  0  0  0
    5.8678   -4.0676   32.1795 N   0  0  0  0  0  0  0  0  0  0  0  0
    8.5881   -0.7470   27.2105 H   0  0  0  0  0  0  0  0  0  0  0  0
    8.6749   -2.0136   25.9902 H   0  0  0  0  0  0  0  0  0  0  0  0
   10.1574   -1.2001   26.5394 H   0  0  0  0  0  0  0  0  0  0  0  0
    9.8324   -2.1547   28.8227 H   0  0  0  0  0  0  0  0  0  0  0  0
    9.5537   -4.7371   27.3846 H   0  0  0  0  0  0  0  0  0  0  0  0
   10.8496   -4.1300   28.4078 H   0  0  0  0  0  0  0  0  0  0  0  0
   10.6199   -3.8503   25.4632 H   0  0  0  0  0  0  0  0  0  0  0  0
   12.2172   -5.3285   24.4245 H   0  0  0  0  0  0  0  0  0  0  0  0
   13.2063   -5.3875   22.1299 H   0  0  0  0  0  0  0  0  0  0  0  0
   14.4434   -3.3880   21.2917 H   0  0  0  0  0  0  0  0  0  0  0  0
   14.6310   -1.4005   22.7914 H   0  0  0  0  0  0  0  0  0  0  0  0
    7.2108   -2.9493   27.7971 H   0  0  0  0  0  0  0  0  0  0  0  0
    5.5310   -2.6435   29.4015 H   0  0  0  0  0  0  0  0  0  0  0  0
    5.8135   -4.3193   28.8769 H   0  0  0  0  0  0  0  0  0  0  0  0
    2.9438   -5.3929   32.5992 H   0  0  0  0  0  0  0  0  0  0  0  0
    5.1367   -4.6571   34.1152 H   0  0  0  0  0  0  0  0  0  0  0  0
    6.7964   -3.7207   32.3979 H   0  0  0  0  0  0  0  0  0  0  0  0
  1  2  1  0
  2  3  1  0
  3  4  1  0
  4  5  1  0
  5  6  2  0
  5  7  1  0
  7  8  2  0
  8  9  1  0
  9 10  2  0
 10 11  1  0
 11 12  2  0
  2 13  1  0
 13 14  1  0
 14 15  2  0
 14 16  1  0
 16 17  1  0
 17 18  2  0
 18 19  1  0
 19 20  2  0
 20 21  1  0
 12  7  1  0
 21 17  1  0
  1 22  1  0
  1 23  1  0
  1 24  1  0
  2 25  1  0
  3 26  1  0
  3 27  1  0
  4 28  1  0
  8 29  1  0
  9 30  1  0
 10 31  1  0
 11 32  1  0
 13 33  1  0
 16 34  1  0
 16 35  1  0
 19 36  1  0
 20 37  1  0
 21 38  1  0
M  END
>  <Energy>  (1050) 
79.27864046581351

>  <compound_id>  (1050) 
9624

>  <target_id>  (1050) 
1

>  <reference_id>  (1050) 
56

>  <inspiration_ids>  (1050) 
[114, 56]

>  <energy_score>  (1050) 
-9.222448239484265

>  <distance_score>  (1050) 
8.914842545338693

>  <path>  (1050) 
/opt/xchem-fragalysis-2/maxwin/BulkDock/SCRATCH/511022/C9624-P56/C9624-P56.minimised.mol

>  <scratch_subdir>  (1050) 
/opt/xchem-fragalysis-2/maxwin/BulkDock/SCRATCH/511022/C9624-P56

>  <fragmenstein_runtime>  (1050) 
16.598761558532715

>  <fragmenstein_outcome>  (1050) 
too moved

>  <fragmenstein_mode>  (1050) 
expansion

>  <fragmenstein_error>  (1050) 


$$$$
C9625-P114
     RDKit          3D

 44 45  0  0  0  0  0  0  0  0999 V2000
    2.8018   -3.7234   33.1724 C   0  0  0  0  0  0  0  0  0  0  0  0
    2.5435   -2.2847   32.7484 C   0  0  0  0  0  0  0  0  0  0  0  0
    1.7642   -2.2020   31.4806 C   0  0  0  0  0  0  0  0  0  0  0  0
    0.4842   -2.6033   31.1686 C   0  0  0  0  0  0  0  0  0  0  0  0
    0.1828   -2.3218   29.8626 N   0  0  0  0  0  0  0  0  0  0  0  0
    1.2551   -1.7421   29.3477 C   0  0  0  0  0  0  0  0  0  0  0  0
    1.3767   -1.2557   27.9036 C   0  0  0  0  0  0  0  0  0  0  0  0
    2.8234   -0.9785   27.4440 C   0  0  0  0  0  0  0  0  0  0  0  0
    3.5672   -0.4988   28.2621 O   0  0  0  0  0  0  0  0  0  0  0  0
    3.0796   -1.4475   26.0770 N   0  0  0  0  0  0  0  0  0  0  0  0
    4.3323   -1.5702   25.3217 C   0  0  0  0  0  0  0  0  0  0  0  0
    5.4937   -1.1917   26.2570 C   0  0  0  0  0  0  0  0  0  0  0  0
    4.5848   -1.8316   23.6305 C   0  0  0  0  0  0  0  0  0  0  0  0
    5.0046   -0.7928   22.3032 N   0  0  0  0  0  0  0  0  0  0  0  0
    5.6097   -1.0927   20.9777 C   0  0  0  0  0  0  0  0  0  0  0  0
    6.0329   -2.1257   20.5267 O   0  0  0  0  0  0  0  0  0  0  0  0
    5.7466    0.1257   20.0006 C   0  0  0  0  0  0  0  0  0  0  0  0
    5.1530    1.3657   20.1793 C   0  0  0  0  0  0  0  0  0  0  0  0
    5.3830    2.3579   19.2197 C   0  0  0  0  0  0  0  0  0  0  0  0
    6.1552    2.0898   18.0953 C   0  0  0  0  0  0  0  0  0  0  0  0
    6.6851    0.8279   17.9746 C   0  0  0  0  0  0  0  0  0  0  0  0
    6.5172   -0.1353   18.9034 N   0  0  0  0  0  0  0  0  0  0  0  0
    2.2360   -1.6374   30.3163 N   0  0  0  0  0  0  0  0  0  0  0  0
    3.3568   -4.2687   32.4012 H   0  0  0  0  0  0  0  0  0  0  0  0
    3.3891   -3.7467   34.0958 H   0  0  0  0  0  0  0  0  0  0  0  0
    1.8646   -4.2603   33.3542 H   0  0  0  0  0  0  0  0  0  0  0  0
    3.5031   -1.7666   32.6341 H   0  0  0  0  0  0  0  0  0  0  0  0
    1.9940   -1.7649   33.5420 H   0  0  0  0  0  0  0  0  0  0  0  0
   -0.2367   -3.0839   31.8183 H   0  0  0  0  0  0  0  0  0  0  0  0
    0.9319   -2.0395   27.2924 H   0  0  0  0  0  0  0  0  0  0  0  0
    0.7965   -0.3357   27.7802 H   0  0  0  0  0  0  0  0  0  0  0  0
    2.2322   -1.8717   25.7057 H   0  0  0  0  0  0  0  0  0  0  0  0
    4.3133   -2.6512   25.4810 H   0  0  0  0  0  0  0  0  0  0  0  0
    6.4581   -1.5306   25.8795 H   0  0  0  0  0  0  0  0  0  0  0  0
    5.4031   -1.6733   27.2381 H   0  0  0  0  0  0  0  0  0  0  0  0
    5.5154   -0.1116   26.4323 H   0  0  0  0  0  0  0  0  0  0  0  0
    3.7408   -2.4555   23.3451 H   0  0  0  0  0  0  0  0  0  0  0  0
    5.5464   -2.2858   23.7324 H   0  0  0  0  0  0  0  0  0  0  0  0
    4.6804    0.1713   22.3134 H   0  0  0  0  0  0  0  0  0  0  0  0
    4.5122    1.5903   21.0214 H   0  0  0  0  0  0  0  0  0  0  0  0
    4.9333    3.3402   19.3464 H   0  0  0  0  0  0  0  0  0  0  0  0
    6.3282    2.8477   17.3398 H   0  0  0  0  0  0  0  0  0  0  0  0
    7.2976    0.5494   17.1230 H   0  0  0  0  0  0  0  0  0  0  0  0
    3.1447   -1.2141   30.1570 H   0  0  0  0  0  0  0  0  0  0  0  0
  1  2  1  0
  2  3  1  0
  3  4  2  0
  4  5  1  0
  5  6  2  0
  6  7  1  0
  7  8  1  0
  8  9  2  0
  8 10  1  0
 10 11  1  0
 11 12  1  0
 11 13  1  0
 13 14  1  0
 14 15  1  0
 15 16  2  0
 15 17  1  0
 17 18  2  0
 18 19  1  0
 19 20  2  0
 20 21  1  0
 21 22  2  0
  6 23  1  0
 23  3  1  0
 22 17  1  0
  1 24  1  0
  1 25  1  0
  1 26  1  0
  2 27  1  0
  2 28  1  0
  4 29  1  0
  7 30  1  0
  7 31  1  0
 10 32  1  0
 11 33  1  0
 12 34  1  0
 12 35  1  0
 12 36  1  0
 13 37  1  0
 13 38  1  0
 14 39  1  0
 18 40  1  0
 19 41  1  0
 20 42  1  0
 21 43  1  0
 23 44  1  0
M  END
>  <Energy>  (1051) 
161.72205932507802

>  <compound_id>  (1051) 
9625

>  <target_id>  (1051) 
1

>  <reference_id>  (1051) 
114

>  <inspiration_ids>  (1051) 
[114, 56]

>  <energy_score>  (1051) 
80.39144811714473

>  <distance_score>  (1051) 
8.633648329876168

>  <path>  (1051) 
/opt/xchem-fragalysis-2/maxwin/BulkDock/SCRATCH/511022/C9625-P114/C9625-P114.minimised.mol

>  <scratch_subdir>  (1051) 
/opt/xchem-fragalysis-2/maxwin/BulkDock/SCRATCH/511022/C9625-P114

>  <fragmenstein_runtime>  (1051) 
14.645164966583252

>  <fragmenstein_outcome>  (1051) 
too moved

>  <fragmenstein_mode>  (1051) 
expansion

>  <fragmenstein_error>  (1051) 


$$$$
C9625-P56
     RDKit          3D

 44 45  0  0  0  0  0  0  0  0999 V2000
    2.8052   -3.5345   33.3862 C   0  0  0  0  0  0  0  0  0  0  0  0
    3.3577   -2.1826   32.9564 C   0  0  0  0  0  0  0  0  0  0  0  0
    4.4488   -2.2952   31.9431 C   0  0  0  0  0  0  0  0  0  0  0  0
    5.5061   -3.1687   31.8169 C   0  0  0  0  0  0  0  0  0  0  0  0
    6.2631   -2.8774   30.7127 N   0  0  0  0  0  0  0  0  0  0  0  0
    5.7072   -1.8187   30.1486 C   0  0  0  0  0  0  0  0  0  0  0  0
    6.2226   -1.0835   28.9110 C   0  0  0  0  0  0  0  0  0  0  0  0
    5.0477   -0.6103   28.0372 C   0  0  0  0  0  0  0  0  0  0  0  0
    4.2611    0.1382   28.5551 O   0  0  0  0  0  0  0  0  0  0  0  0
    5.0360   -1.2376   26.7339 N   0  0  0  0  0  0  0  0  0  0  0  0
    4.0219   -1.2402   25.6820 C   0  0  0  0  0  0  0  0  0  0  0  0
    3.0123   -2.2063   26.3149 C   0  0  0  0  0  0  0  0  0  0  0  0
    4.3297   -1.7019   23.9593 C   0  0  0  0  0  0  0  0  0  0  0  0
    5.0376   -1.0735   22.3240 N   0  0  0  0  0  0  0  0  0  0  0  0
    4.7443    0.2951   21.4942 C   0  0  0  0  0  0  0  0  0  0  0  0
    4.0129    1.2411   21.7569 O   0  0  0  0  0  0  0  0  0  0  0  0
    5.5199    0.5819   20.2241 C   0  0  0  0  0  0  0  0  0  0  0  0
    5.7215    1.9540   19.9897 C   0  0  0  0  0  0  0  0  0  0  0  0
    6.1856    2.3976   18.7651 C   0  0  0  0  0  0  0  0  0  0  0  0
    6.4417    1.4689   17.7914 C   0  0  0  0  0  0  0  0  0  0  0  0
    6.1455    0.1446   18.0673 C   0  0  0  0  0  0  0  0  0  0  0  0
    5.7686   -0.3577   19.2796 N   0  0  0  0  0  0  0  0  0  0  0  0
    4.5950   -1.4338   30.8773 N   0  0  0  0  0  0  0  0  0  0  0  0
    2.4213   -4.0961   32.5276 H   0  0  0  0  0  0  0  0  0  0  0  0
    3.5735   -4.1447   33.8728 H   0  0  0  0  0  0  0  0  0  0  0  0
    1.9849   -3.3982   34.0983 H   0  0  0  0  0  0  0  0  0  0  0  0
    3.7424   -1.6518   33.8350 H   0  0  0  0  0  0  0  0  0  0  0  0
    2.5373   -1.5787   32.5502 H   0  0  0  0  0  0  0  0  0  0  0  0
    5.7603   -3.9957   32.4675 H   0  0  0  0  0  0  0  0  0  0  0  0
    6.8979   -1.7436   28.3585 H   0  0  0  0  0  0  0  0  0  0  0  0
    6.7962   -0.2032   29.2209 H   0  0  0  0  0  0  0  0  0  0  0  0
    5.8250   -1.8786   26.6661 H   0  0  0  0  0  0  0  0  0  0  0  0
    3.5472   -0.2420   25.7431 H   0  0  0  0  0  0  0  0  0  0  0  0
    3.2916   -2.5862   27.3045 H   0  0  0  0  0  0  0  0  0  0  0  0
    2.0574   -1.7053   26.4747 H   0  0  0  0  0  0  0  0  0  0  0  0
    2.9354   -3.0599   25.6561 H   0  0  0  0  0  0  0  0  0  0  0  0
    5.2576   -2.1996   24.2216 H   0  0  0  0  0  0  0  0  0  0  0  0
    4.1836   -0.6750   24.1844 H   0  0  0  0  0  0  0  0  0  0  0  0
    5.6223   -1.6693   21.7861 H   0  0  0  0  0  0  0  0  0  0  0  0
    5.4786    2.6856   20.7570 H   0  0  0  0  0  0  0  0  0  0  0  0
    6.3259    3.4577   18.5801 H   0  0  0  0  0  0  0  0  0  0  0  0
    6.8234    1.8071   16.8432 H   0  0  0  0  0  0  0  0  0  0  0  0
    6.1618   -0.5597   17.2431 H   0  0  0  0  0  0  0  0  0  0  0  0
    3.9920   -0.6572   30.6276 H   0  0  0  0  0  0  0  0  0  0  0  0
  1  2  1  0
  2  3  1  0
  3  4  2  0
  4  5  1  0
  5  6  2  0
  6  7  1  0
  7  8  1  0
  8  9  2  0
  8 10  1  0
 10 11  1  0
 11 12  1  0
 11 13  1  0
 13 14  1  0
 14 15  1  0
 15 16  2  0
 15 17  1  0
 17 18  2  0
 18 19  1  0
 19 20  2  0
 20 21  1  0
 21 22  2  0
  6 23  1  0
 23  3  1  0
 22 17  1  0
  1 24  1  0
  1 25  1  0
  1 26  1  0
  2 27  1  0
  2 28  1  0
  4 29  1  0
  7 30  1  0
  7 31  1  0
 10 32  1  0
 11 33  1  0
 12 34  1  0
 12 35  1  0
 12 36  1  0
 13 37  1  0
 13 38  1  0
 14 39  1  0
 18 40  1  0
 19 41  1  0
 20 42  1  0
 21 43  1  0
 23 44  1  0
M  END
>  <Energy>  (1052) 
244.46062897511217

>  <compound_id>  (1052) 
9625

>  <target_id>  (1052) 
1

>  <reference_id>  (1052) 
56

>  <inspiration_ids>  (1052) 
[114, 56]

>  <energy_score>  (1052) 
163.13001776717465

>  <distance_score>  (1052) 
8.828448453689639

>  <path>  (1052) 
/opt/xchem-fragalysis-2/maxwin/BulkDock/SCRATCH/511022/C9625-P56/C9625-P56.minimised.mol

>  <scratch_subdir>  (1052) 
/opt/xchem-fragalysis-2/maxwin/BulkDock/SCRATCH/511022/C9625-P56

>  <fragmenstein_runtime>  (1052) 
16.70282292366028

>  <fragmenstein_outcome>  (1052) 
too moved

>  <fragmenstein_mode>  (1052) 
expansion

>  <fragmenstein_error>  (1052) 


$$$$
C8991-P114
     RDKit          3D

 42 44  0  0  0  0  0  0  0  0999 V2000
    5.0454   -3.3081   29.7839 C   0  0  0  0  0  0  0  0  0  0  0  0
    3.9383   -2.2459   29.6826 C   0  0  0  0  0  0  0  0  0  0  0  0
    4.4786   -0.9776   28.9102 C   0  0  0  0  0  0  0  0  0  0  0  0
    5.0301   -1.1016   27.5607 N   0  0  0  0  0  0  0  0  0  0  0  0
    4.4858   -0.7349   26.2845 C   0  0  0  0  0  0  0  0  0  0  0  0
    3.4093   -0.3069   25.9900 O   0  0  0  0  0  0  0  0  0  0  0  0
    5.5137   -0.8346   25.1882 C   0  0  0  0  0  0  0  0  0  0  0  0
    5.1944   -0.8662   23.8337 C   0  0  0  0  0  0  0  0  0  0  0  0
    6.6054   -0.8177   22.8571 S   0  0  0  0  0  0  0  0  0  0  0  0
    7.5496   -0.7409   24.2836 C   0  0  0  0  0  0  0  0  0  0  0  0
    6.9003   -0.7993   25.4274 N   0  0  0  0  0  0  0  0  0  0  0  0
    3.5479   -1.8354   31.0487 N   0  0  0  0  0  0  0  0  0  0  0  0
    3.5895   -2.5558   32.3066 C   0  0  0  0  0  0  0  0  0  0  0  0
    4.0261   -3.6415   32.5723 O   0  0  0  0  0  0  0  0  0  0  0  0
    2.9404   -1.6855   33.3997 C   0  0  0  0  0  0  0  0  0  0  0  0
    2.5781   -2.4202   34.6579 C   0  0  0  0  0  0  0  0  0  0  0  0
    1.7899   -1.9588   35.6108 N   0  0  0  0  0  0  0  0  0  0  0  0
    1.7785   -2.9175   36.5916 C   0  0  0  0  0  0  0  0  0  0  0  0
    2.5612   -3.9860   36.2326 C   0  0  0  0  0  0  0  0  0  0  0  0
    3.0530   -3.6652   35.0004 N   0  0  0  0  0  0  0  0  0  0  0  0
    2.7094   -2.8293   28.9820 C   0  0  0  0  0  0  0  0  0  0  0  0
    1.2915   -2.3873   29.2913 C   0  0  0  0  0  0  0  0  0  0  0  0
    1.7336   -3.7703   29.6697 C   0  0  0  0  0  0  0  0  0  0  0  0
    5.4926   -3.5113   28.8069 H   0  0  0  0  0  0  0  0  0  0  0  0
    4.6675   -4.2608   30.1705 H   0  0  0  0  0  0  0  0  0  0  0  0
    5.8569   -2.9727   30.4402 H   0  0  0  0  0  0  0  0  0  0  0  0
    5.2742   -0.5154   29.5078 H   0  0  0  0  0  0  0  0  0  0  0  0
    3.6667   -0.2422   28.8437 H   0  0  0  0  0  0  0  0  0  0  0  0
    5.9538   -1.5072   27.4225 H   0  0  0  0  0  0  0  0  0  0  0  0
    4.2030   -0.8971   23.3990 H   0  0  0  0  0  0  0  0  0  0  0  0
    8.6266   -0.6437   24.2468 H   0  0  0  0  0  0  0  0  0  0  0  0
    3.0285   -0.9740   31.1774 H   0  0  0  0  0  0  0  0  0  0  0  0
    2.0228   -1.2365   33.0011 H   0  0  0  0  0  0  0  0  0  0  0  0
    3.6411   -0.8800   33.6468 H   0  0  0  0  0  0  0  0  0  0  0  0
    1.2124   -2.7831   37.5052 H   0  0  0  0  0  0  0  0  0  0  0  0
    2.8066   -4.9137   36.7270 H   0  0  0  0  0  0  0  0  0  0  0  0
    3.6558   -4.2297   34.4095 H   0  0  0  0  0  0  0  0  0  0  0  0
    2.9157   -3.0098   27.9298 H   0  0  0  0  0  0  0  0  0  0  0  0
    0.6133   -2.2806   28.4487 H   0  0  0  0  0  0  0  0  0  0  0  0
    1.0967   -1.6807   30.0868 H   0  0  0  0  0  0  0  0  0  0  0  0
    1.2907   -4.5814   29.1070 H   0  0  0  0  0  0  0  0  0  0  0  0
    1.8586   -4.0015   30.7200 H   0  0  0  0  0  0  0  0  0  0  0  0
  1  2  1  0
  2  3  1  0
  3  4  1  0
  4  5  1  0
  5  6  2  0
  5  7  1  0
  7  8  2  0
  8  9  1  0
  9 10  1  0
 10 11  2  0
  2 12  1  0
 12 13  1  0
 13 14  2  0
 13 15  1  0
 15 16  1  0
 16 17  2  0
 17 18  1  0
 18 19  2  0
 19 20  1  0
  2 21  1  0
 21 22  1  0
 22 23  1  0
 11  7  1  0
 20 16  1  0
 23 21  1  0
  1 24  1  0
  1 25  1  0
  1 26  1  0
  3 27  1  0
  3 28  1  0
  4 29  1  0
  8 30  1  0
 10 31  1  0
 12 32  1  0
 15 33  1  0
 15 34  1  0
 18 35  1  0
 19 36  1  0
 20 37  1  0
 21 38  1  0
 22 39  1  0
 22 40  1  0
 23 41  1  0
 23 42  1  0
M  END
>  <Energy>  (1053) 
60.237087606655237

>  <compound_id>  (1053) 
8991

>  <target_id>  (1053) 
1

>  <reference_id>  (1053) 
114

>  <inspiration_ids>  (1053) 
[114, 56]

>  <energy_score>  (1053) 
-93.64947963217

>  <distance_score>  (1053) 
7.728398270533747

>  <path>  (1053) 
/opt/xchem-fragalysis-2/maxwin/BulkDock/SCRATCH/511022/C8991-P114/C8991-P114.minimised.mol

>  <scratch_subdir>  (1053) 
/opt/xchem-fragalysis-2/maxwin/BulkDock/SCRATCH/511022/C8991-P114

>  <fragmenstein_runtime>  (1053) 
21.16568922996521

>  <fragmenstein_outcome>  (1053) 
too moved

>  <fragmenstein_mode>  (1053) 
expansion

>  <fragmenstein_error>  (1053) 


$$$$
C8991-P56
     RDKit          3D

 42 44  0  0  0  0  0  0  0  0999 V2000
    4.7603   -2.8802   29.8440 C   0  0  0  0  0  0  0  0  0  0  0  0
    3.7872   -1.7078   30.0134 C   0  0  0  0  0  0  0  0  0  0  0  0
    4.2775   -0.4530   29.1826 C   0  0  0  0  0  0  0  0  0  0  0  0
    4.7837   -0.6348   27.8156 N   0  0  0  0  0  0  0  0  0  0  0  0
    6.1275   -0.6818   27.3063 C   0  0  0  0  0  0  0  0  0  0  0  0
    7.1801   -0.6641   27.8770 O   0  0  0  0  0  0  0  0  0  0  0  0
    6.1650   -0.6848   25.8007 C   0  0  0  0  0  0  0  0  0  0  0  0
    7.3433   -0.7687   25.0598 C   0  0  0  0  0  0  0  0  0  0  0  0
    7.0148   -0.8014   23.3751 S   0  0  0  0  0  0  0  0  0  0  0  0
    5.3430   -0.6796   23.7283 C   0  0  0  0  0  0  0  0  0  0  0  0
    5.0198   -0.5889   25.0020 N   0  0  0  0  0  0  0  0  0  0  0  0
    3.7875   -1.4087   31.4569 N   0  0  0  0  0  0  0  0  0  0  0  0
    3.2124   -0.3198   32.1934 C   0  0  0  0  0  0  0  0  0  0  0  0
    2.6503    0.6704   31.8159 O   0  0  0  0  0  0  0  0  0  0  0  0
    3.4850   -0.4662   33.6993 C   0  0  0  0  0  0  0  0  0  0  0  0
    3.1198   -1.8110   34.2367 C   0  0  0  0  0  0  0  0  0  0  0  0
    3.6494   -2.9636   33.8701 N   0  0  0  0  0  0  0  0  0  0  0  0
    3.0810   -3.9082   34.6884 C   0  0  0  0  0  0  0  0  0  0  0  0
    2.1912   -3.3252   35.5569 C   0  0  0  0  0  0  0  0  0  0  0  0
    2.2159   -1.9929   35.2560 N   0  0  0  0  0  0  0  0  0  0  0  0
    2.3277   -2.0339   29.6897 C   0  0  0  0  0  0  0  0  0  0  0  0
    1.8779   -2.7256   28.4309 C   0  0  0  0  0  0  0  0  0  0  0  0
    1.7471   -3.4323   29.7535 C   0  0  0  0  0  0  0  0  0  0  0  0
    4.8639   -3.1616   28.7967 H   0  0  0  0  0  0  0  0  0  0  0  0
    5.7613   -2.6026   30.1976 H   0  0  0  0  0  0  0  0  0  0  0  0
    4.4618   -3.7650   30.4153 H   0  0  0  0  0  0  0  0  0  0  0  0
    3.4732    0.2885   29.1141 H   0  0  0  0  0  0  0  0  0  0  0  0
    5.1006    0.0188   29.7344 H   0  0  0  0  0  0  0  0  0  0  0  0
    4.1310   -0.7542   27.0410 H   0  0  0  0  0  0  0  0  0  0  0  0
    8.3515   -0.8200   25.4459 H   0  0  0  0  0  0  0  0  0  0  0  0
    4.5916   -0.6735   22.9483 H   0  0  0  0  0  0  0  0  0  0  0  0
    4.1091   -2.1231   32.1155 H   0  0  0  0  0  0  0  0  0  0  0  0
    4.5512   -0.2772   33.8689 H   0  0  0  0  0  0  0  0  0  0  0  0
    2.9243    0.3150   34.2264 H   0  0  0  0  0  0  0  0  0  0  0  0
    3.3495   -4.9554   34.6182 H   0  0  0  0  0  0  0  0  0  0  0  0
    1.5751   -3.7324   36.3458 H   0  0  0  0  0  0  0  0  0  0  0  0
    1.6850   -1.2664   35.7168 H   0  0  0  0  0  0  0  0  0  0  0  0
    1.6768   -1.2216   30.0109 H   0  0  0  0  0  0  0  0  0  0  0  0
    0.9696   -2.3668   27.9558 H   0  0  0  0  0  0  0  0  0  0  0  0
    2.6412   -2.9997   27.7184 H   0  0  0  0  0  0  0  0  0  0  0  0
    2.3855   -4.2833   29.9448 H   0  0  0  0  0  0  0  0  0  0  0  0
    0.7544   -3.5376   30.1787 H   0  0  0  0  0  0  0  0  0  0  0  0
  1  2  1  0
  2  3  1  0
  3  4  1  0
  4  5  1  0
  5  6  2  0
  5  7  1  0
  7  8  2  0
  8  9  1  0
  9 10  1  0
 10 11  2  0
  2 12  1  0
 12 13  1  0
 13 14  2  0
 13 15  1  0
 15 16  1  0
 16 17  2  0
 17 18  1  0
 18 19  2  0
 19 20  1  0
  2 21  1  0
 21 22  1  0
 22 23  1  0
 11  7  1  0
 20 16  1  0
 23 21  1  0
  1 24  1  0
  1 25  1  0
  1 26  1  0
  3 27  1  0
  3 28  1  0
  4 29  1  0
  8 30  1  0
 10 31  1  0
 12 32  1  0
 15 33  1  0
 15 34  1  0
 18 35  1  0
 19 36  1  0
 20 37  1  0
 21 38  1  0
 22 39  1  0
 22 40  1  0
 23 41  1  0
 23 42  1  0
M  END
>  <Energy>  (1054) 
55.81960974312895

>  <compound_id>  (1054) 
8991

>  <target_id>  (1054) 
1

>  <reference_id>  (1054) 
56

>  <inspiration_ids>  (1054) 
[114, 56]

>  <energy_score>  (1054) 
-98.06695749569676

>  <distance_score>  (1054) 
7.8683043356125975

>  <path>  (1054) 
/opt/xchem-fragalysis-2/maxwin/BulkDock/SCRATCH/511022/C8991-P56/C8991-P56.minimised.mol

>  <scratch_subdir>  (1054) 
/opt/xchem-fragalysis-2/maxwin/BulkDock/SCRATCH/511022/C8991-P56

>  <fragmenstein_runtime>  (1054) 
17.506694078445435

>  <fragmenstein_outcome>  (1054) 
too moved

>  <fragmenstein_mode>  (1054) 
expansion

>  <fragmenstein_error>  (1054) 


$$$$
C9627-P114
     RDKit          3D

 37 38  0  0  0  0  0  0  0  0999 V2000
    0.5703   -4.7508   32.8783 C   0  0  0  0  0  0  0  0  0  0  0  0
    1.0378   -4.3088   31.5433 C   0  0  0  0  0  0  0  0  0  0  0  0
    0.4127   -4.4402   30.3885 N   0  0  0  0  0  0  0  0  0  0  0  0
    1.2599   -3.9168   29.4212 C   0  0  0  0  0  0  0  0  0  0  0  0
    0.8550   -3.9151   27.9571 C   0  0  0  0  0  0  0  0  0  0  0  0
    2.0610   -3.9674   26.9607 C   0  0  0  0  0  0  0  0  0  0  0  0
    2.9065   -3.0839   26.9690 O   0  0  0  0  0  0  0  0  0  0  0  0
    2.0000   -5.4084   26.0744 N   0  0  0  0  0  0  0  0  0  0  0  0
    3.3553   -6.2509   24.8238 C   0  0  0  0  0  0  0  0  0  0  0  0
    4.9751   -7.0504   23.7911 C   0  0  0  0  0  0  0  0  0  0  0  0
    6.5413   -6.7666   22.6766 C   0  0  0  0  0  0  0  0  0  0  0  0
    6.8541   -6.9526   20.7745 C   0  0  0  0  0  0  0  0  0  0  0  0
    7.0797   -5.3627   19.9889 C   0  0  0  0  0  0  0  0  0  0  0  0
    8.4655   -4.6685   20.1447 C   0  0  0  0  0  0  0  0  0  0  0  0
    9.8485   -5.7995   19.8219 C   0  0  0  0  0  0  0  0  0  0  0  0
    9.3496   -7.5742   19.7970 C   0  0  0  0  0  0  0  0  0  0  0  0
    7.5186   -7.6319   19.7791 N   0  0  0  0  0  0  0  0  0  0  0  0
    2.3883   -3.4149   30.0393 C   0  0  0  0  0  0  0  0  0  0  0  0
    2.2394   -3.6728   31.3722 N   0  0  0  0  0  0  0  0  0  0  0  0
    0.0824   -3.9226   33.4012 H   0  0  0  0  0  0  0  0  0  0  0  0
    1.4026   -5.1070   33.4931 H   0  0  0  0  0  0  0  0  0  0  0  0
   -0.1532   -5.5659   32.7788 H   0  0  0  0  0  0  0  0  0  0  0  0
    0.1726   -4.7516   27.7787 H   0  0  0  0  0  0  0  0  0  0  0  0
    0.3073   -2.9853   27.7708 H   0  0  0  0  0  0  0  0  0  0  0  0
    1.1127   -5.8986   26.2648 H   0  0  0  0  0  0  0  0  0  0  0  0
    4.0637   -5.3496   24.9463 H   0  0  0  0  0  0  0  0  0  0  0  0
    2.5861   -6.4856   24.1045 H   0  0  0  0  0  0  0  0  0  0  0  0
    5.3323   -7.8634   24.4557 H   0  0  0  0  0  0  0  0  0  0  0  0
    5.5488   -6.1570   24.0611 H   0  0  0  0  0  0  0  0  0  0  0  0
    7.2358   -7.2780   23.3430 H   0  0  0  0  0  0  0  0  0  0  0  0
    7.0279   -5.7983   22.9216 H   0  0  0  0  0  0  0  0  0  0  0  0
    6.6501   -5.3935   18.9589 H   0  0  0  0  0  0  0  0  0  0  0  0
    8.2883   -3.9159   20.8934 H   0  0  0  0  0  0  0  0  0  0  0  0
   10.8653   -5.5753   20.1918 H   0  0  0  0  0  0  0  0  0  0  0  0
    9.8738   -8.5149   19.9713 H   0  0  0  0  0  0  0  0  0  0  0  0
    3.2606   -2.9104   29.6439 H   0  0  0  0  0  0  0  0  0  0  0  0
    2.8965   -3.4433   32.1042 H   0  0  0  0  0  0  0  0  0  0  0  0
  1  2  1  0
  2  3  2  0
  3  4  1  0
  4  5  1  0
  5  6  1  0
  6  7  2  0
  6  8  1  0
  8  9  1  0
  9 10  1  0
 10 11  1  0
 11 12  1  0
 12 13  2  0
 13 14  1  0
 14 15  2  0
 15 16  1  0
 16 17  2  0
  4 18  2  0
 18 19  1  0
 19  2  1  0
 17 12  1  0
  1 20  1  0
  1 21  1  0
  1 22  1  0
  5 23  1  0
  5 24  1  0
  8 25  1  0
  9 26  1  0
  9 27  1  0
 10 28  1  0
 10 29  1  0
 11 30  1  0
 11 31  1  0
 13 32  1  0
 14 33  1  0
 15 34  1  0
 16 35  1  0
 18 36  1  0
 19 37  1  0
M  END
>  <Energy>  (1055) 
824.9010742774966

>  <compound_id>  (1055) 
9627

>  <target_id>  (1055) 
1

>  <reference_id>  (1055) 
114

>  <inspiration_ids>  (1055) 
[114, 56]

>  <energy_score>  (1055) 
789.9403293961104

>  <distance_score>  (1055) 
8.499334096220213

>  <path>  (1055) 
/opt/xchem-fragalysis-2/maxwin/BulkDock/SCRATCH/511022/C9627-P114/C9627-P114.minimised.mol

>  <scratch_subdir>  (1055) 
/opt/xchem-fragalysis-2/maxwin/BulkDock/SCRATCH/511022/C9627-P114

>  <fragmenstein_runtime>  (1055) 
9.402002573013306

>  <fragmenstein_outcome>  (1055) 
too moved

>  <fragmenstein_mode>  (1055) 
expansion

>  <fragmenstein_error>  (1055) 


$$$$
C9627-P56
     RDKit          3D

 37 38  0  0  0  0  0  0  0  0999 V2000
    1.2696   -4.1350   35.4302 C   0  0  0  0  0  0  0  0  0  0  0  0
    2.5998   -3.6645   35.0249 C   0  0  0  0  0  0  0  0  0  0  0  0
    2.8901   -2.9510   33.9597 N   0  0  0  0  0  0  0  0  0  0  0  0
    4.2724   -2.9576   33.8539 C   0  0  0  0  0  0  0  0  0  0  0  0
    5.0193   -2.2932   32.6819 C   0  0  0  0  0  0  0  0  0  0  0  0
    5.3778   -3.1645   31.4146 C   0  0  0  0  0  0  0  0  0  0  0  0
    5.1044   -4.3063   31.3281 O   0  0  0  0  0  0  0  0  0  0  0  0
    6.0309   -2.1799   30.3498 N   0  0  0  0  0  0  0  0  0  0  0  0
    6.3850   -2.4011   28.9249 C   0  0  0  0  0  0  0  0  0  0  0  0
    7.8845   -2.4679   28.5098 C   0  0  0  0  0  0  0  0  0  0  0  0
    8.2673   -1.6362   27.0066 C   0  0  0  0  0  0  0  0  0  0  0  0
    9.6217   -1.5036   26.0761 C   0  0  0  0  0  0  0  0  0  0  0  0
   10.5910   -2.5036   26.0347 C   0  0  0  0  0  0  0  0  0  0  0  0
   11.7729   -2.3567   25.2804 C   0  0  0  0  0  0  0  0  0  0  0  0
   11.9886   -1.2181   24.5120 C   0  0  0  0  0  0  0  0  0  0  0  0
   10.9981   -0.2553   24.5525 C   0  0  0  0  0  0  0  0  0  0  0  0
    9.8258   -0.3803   25.2862 N   0  0  0  0  0  0  0  0  0  0  0  0
    4.7963   -3.5217   35.0033 C   0  0  0  0  0  0  0  0  0  0  0  0
    3.7297   -3.9793   35.7263 N   0  0  0  0  0  0  0  0  0  0  0  0
    1.1938   -5.2214   35.3198 H   0  0  0  0  0  0  0  0  0  0  0  0
    0.4898   -3.6776   34.8132 H   0  0  0  0  0  0  0  0  0  0  0  0
    1.0651   -3.8796   36.4748 H   0  0  0  0  0  0  0  0  0  0  0  0
    4.4046   -1.4534   32.3350 H   0  0  0  0  0  0  0  0  0  0  0  0
    5.9610   -1.8833   33.0675 H   0  0  0  0  0  0  0  0  0  0  0  0
    6.2050   -1.2797   30.7811 H   0  0  0  0  0  0  0  0  0  0  0  0
    5.8998   -3.3411   28.6500 H   0  0  0  0  0  0  0  0  0  0  0  0
    5.8937   -1.5905   28.3775 H   0  0  0  0  0  0  0  0  0  0  0  0
    8.5221   -2.0038   29.2702 H   0  0  0  0  0  0  0  0  0  0  0  0
    8.2058   -3.5069   28.3815 H   0  0  0  0  0  0  0  0  0  0  0  0
    7.5263   -2.0056   26.2948 H   0  0  0  0  0  0  0  0  0  0  0  0
    8.0011   -0.5924   27.2224 H   0  0  0  0  0  0  0  0  0  0  0  0
   10.4478   -3.4082   26.6189 H   0  0  0  0  0  0  0  0  0  0  0  0
   12.5114   -3.1533   25.2828 H   0  0  0  0  0  0  0  0  0  0  0  0
   12.8901   -1.0849   23.9284 H   0  0  0  0  0  0  0  0  0  0  0  0
   11.0832    0.6648   23.9830 H   0  0  0  0  0  0  0  0  0  0  0  0
    5.8114   -3.6842   35.3333 H   0  0  0  0  0  0  0  0  0  0  0  0
    3.7800   -4.5397   36.5760 H   0  0  0  0  0  0  0  0  0  0  0  0
  1  2  1  0
  2  3  2  0
  3  4  1  0
  4  5  1  0
  5  6  1  0
  6  7  2  0
  6  8  1  0
  8  9  1  0
  9 10  1  0
 10 11  1  0
 11 12  1  0
 12 13  2  0
 13 14  1  0
 14 15  2  0
 15 16  1  0
 16 17  2  0
  4 18  2  0
 18 19  1  0
 19  2  1  0
 17 12  1  0
  1 20  1  0
  1 21  1  0
  1 22  1  0
  5 23  1  0
  5 24  1  0
  8 25  1  0
  9 26  1  0
  9 27  1  0
 10 28  1  0
 10 29  1  0
 11 30  1  0
 11 31  1  0
 13 32  1  0
 14 33  1  0
 15 34  1  0
 16 35  1  0
 18 36  1  0
 19 37  1  0
M  END
>  <Energy>  (1056) 
79.009882105354023

>  <compound_id>  (1056) 
9627

>  <target_id>  (1056) 
1

>  <reference_id>  (1056) 
56

>  <inspiration_ids>  (1056) 
[114, 56]

>  <energy_score>  (1056) 
34.42609897576308

>  <distance_score>  (1056) 
7.944134028134207

>  <path>  (1056) 
/opt/xchem-fragalysis-2/maxwin/BulkDock/SCRATCH/511022/C9627-P56/C9627-P56.minimised.mol

>  <scratch_subdir>  (1056) 
/opt/xchem-fragalysis-2/maxwin/BulkDock/SCRATCH/511022/C9627-P56

>  <fragmenstein_runtime>  (1056) 
9.268746137619019

>  <fragmenstein_outcome>  (1056) 
too moved

>  <fragmenstein_mode>  (1056) 
expansion

>  <fragmenstein_error>  (1056) 


$$$$
C27064-P114
     RDKit          3D

 41 42  0  0  0  0  0  0  0  0999 V2000
    1.1500   -1.4029   27.5542 C   0  0  0  0  0  0  0  0  0  0  0  0
    2.5528   -2.0130   27.6186 C   0  0  0  0  0  0  0  0  0  0  0  0
    3.5357   -1.2102   26.7320 C   0  0  0  0  0  0  0  0  0  0  0  0
    3.3968   -1.4384   25.2971 N   0  0  0  0  0  0  0  0  0  0  0  0
    3.1305   -0.5168   24.2097 C   0  0  0  0  0  0  0  0  0  0  0  0
    2.8783    0.6534   24.2223 O   0  0  0  0  0  0  0  0  0  0  0  0
    3.2778   -1.2581   22.8562 C   0  0  0  0  0  0  0  0  0  0  0  0
    3.0661   -0.3937   21.5942 C   0  0  0  0  0  0  0  0  0  0  0  0
    4.2908   -0.0921   20.7618 C   0  0  0  0  0  0  0  0  0  0  0  0
    5.0922   -0.9680   19.9929 C   0  0  0  0  0  0  0  0  0  0  0  0
    6.0710   -0.3318   19.3361 N   0  0  0  0  0  0  0  0  0  0  0  0
    5.9040    1.0037   19.6391 O   0  0  0  0  0  0  0  0  0  0  0  0
    4.8415    1.1379   20.4707 C   0  0  0  0  0  0  0  0  0  0  0  0
    3.0425   -2.0705   29.0746 C   0  0  0  0  0  0  0  0  0  0  0  0
    2.1087   -2.7992   29.9029 N   0  0  0  0  0  0  0  0  0  0  0  0
    2.1826   -4.1029   30.4714 C   0  0  0  0  0  0  0  0  0  0  0  0
    3.0705   -4.9023   30.4762 O   0  0  0  0  0  0  0  0  0  0  0  0
    0.9130   -4.4890   31.0819 C   0  0  0  0  0  0  0  0  0  0  0  0
   -0.3617   -3.9479   31.0884 C   0  0  0  0  0  0  0  0  0  0  0  0
   -1.2520   -4.7318   31.7799 N   0  0  0  0  0  0  0  0  0  0  0  0
   -0.5439   -5.7488   32.2035 C   0  0  0  0  0  0  0  0  0  0  0  0
    0.7557   -5.6503   31.8047 N   0  0  0  0  0  0  0  0  0  0  0  0
    0.4093   -2.0348   28.0546 H   0  0  0  0  0  0  0  0  0  0  0  0
    0.8218   -1.2937   26.5149 H   0  0  0  0  0  0  0  0  0  0  0  0
    1.1252   -0.4113   28.0187 H   0  0  0  0  0  0  0  0  0  0  0  0
    2.4832   -3.0357   27.2308 H   0  0  0  0  0  0  0  0  0  0  0  0
    4.5664   -1.4931   26.9721 H   0  0  0  0  0  0  0  0  0  0  0  0
    3.4366   -0.1348   26.9169 H   0  0  0  0  0  0  0  0  0  0  0  0
    3.6550   -2.3409   24.9113 H   0  0  0  0  0  0  0  0  0  0  0  0
    4.2600   -1.7352   22.8249 H   0  0  0  0  0  0  0  0  0  0  0  0
    2.5162   -2.0486   22.8614 H   0  0  0  0  0  0  0  0  0  0  0  0
    2.3777   -0.9388   20.9331 H   0  0  0  0  0  0  0  0  0  0  0  0
    2.5564    0.5463   21.8343 H   0  0  0  0  0  0  0  0  0  0  0  0
    4.9932   -2.0402   19.8888 H   0  0  0  0  0  0  0  0  0  0  0  0
    4.6013    2.1510   20.7606 H   0  0  0  0  0  0  0  0  0  0  0  0
    4.0147   -2.5713   29.1308 H   0  0  0  0  0  0  0  0  0  0  0  0
    3.1408   -1.0656   29.4982 H   0  0  0  0  0  0  0  0  0  0  0  0
    1.2306   -2.3755   30.1655 H   0  0  0  0  0  0  0  0  0  0  0  0
   -0.7091   -3.0408   30.6104 H   0  0  0  0  0  0  0  0  0  0  0  0
   -0.9022   -6.5796   32.7945 H   0  0  0  0  0  0  0  0  0  0  0  0
    1.4828   -6.3326   32.0026 H   0  0  0  0  0  0  0  0  0  0  0  0
  1  2  1  0
  2  3  1  0
  3  4  1  0
  4  5  1  0
  5  6  2  0
  5  7  1  0
  7  8  1  0
  8  9  1  0
  9 10  1  0
 10 11  2  0
 11 12  1  0
 12 13  1  0
  2 14  1  0
 14 15  1  0
 15 16  1  0
 16 17  2  0
 16 18  1  0
 18 19  2  0
 19 20  1  0
 20 21  2  0
 21 22  1  0
 13  9  2  0
 22 18  1  0
  1 23  1  0
  1 24  1  0
  1 25  1  0
  2 26  1  0
  3 27  1  0
  3 28  1  0
  4 29  1  0
  7 30  1  0
  7 31  1  0
  8 32  1  0
  8 33  1  0
 10 34  1  0
 13 35  1  0
 14 36  1  0
 14 37  1  0
 15 38  1  0
 19 39  1  0
 21 40  1  0
 22 41  1  0
M  END
>  <Energy>  (1057) 
-48.506111592749129

>  <compound_id>  (1057) 
27064

>  <target_id>  (1057) 
1

>  <reference_id>  (1057) 
114

>  <inspiration_ids>  (1057) 
[114, 56]

>  <energy_score>  (1057) 
-11.82793751045827

>  <distance_score>  (1057) 
8.888252065092463

>  <path>  (1057) 
/opt/xchem-fragalysis-2/maxwin/BulkDock/SCRATCH/511022/C27064-P114/C27064-P114.minimised.mol

>  <scratch_subdir>  (1057) 
/opt/xchem-fragalysis-2/maxwin/BulkDock/SCRATCH/511022/C27064-P114

>  <fragmenstein_runtime>  (1057) 
14.58238959312439

>  <fragmenstein_outcome>  (1057) 
too moved

>  <fragmenstein_mode>  (1057) 
expansion

>  <fragmenstein_error>  (1057) 


$$$$
C27064-P56
     RDKit          3D

 41 42  0  0  0  0  0  0  0  0999 V2000
    3.2425   -3.2461   30.1554 C   0  0  0  0  0  0  0  0  0  0  0  0
    2.2537   -2.3171   29.4219 C   0  0  0  0  0  0  0  0  0  0  0  0
    1.9427   -2.5958   27.8132 C   0  0  0  0  0  0  0  0  0  0  0  0
    2.7764   -2.1040   26.6089 N   0  0  0  0  0  0  0  0  0  0  0  0
    2.3960   -2.0098   25.0453 C   0  0  0  0  0  0  0  0  0  0  0  0
    1.3707   -2.2230   24.4934 O   0  0  0  0  0  0  0  0  0  0  0  0
    3.6091   -1.4399   24.1189 C   0  0  0  0  0  0  0  0  0  0  0  0
    3.4074   -1.4121   22.4766 C   0  0  0  0  0  0  0  0  0  0  0  0
    4.5060   -0.9239   21.3287 C   0  0  0  0  0  0  0  0  0  0  0  0
    5.0852   -1.6596   20.2450 C   0  0  0  0  0  0  0  0  0  0  0  0
    5.8009   -0.9118   19.3834 N   0  0  0  0  0  0  0  0  0  0  0  0
    5.6875    0.3667   19.8332 O   0  0  0  0  0  0  0  0  0  0  0  0
    4.8595    0.3588   20.9144 C   0  0  0  0  0  0  0  0  0  0  0  0
    0.9251   -2.2398   30.2327 C   0  0  0  0  0  0  0  0  0  0  0  0
    0.4494   -3.4654   30.8553 N   0  0  0  0  0  0  0  0  0  0  0  0
    0.1820   -4.8503   30.2532 C   0  0  0  0  0  0  0  0  0  0  0  0
    0.2258   -5.2134   29.1495 O   0  0  0  0  0  0  0  0  0  0  0  0
   -0.2584   -5.8097   31.2623 C   0  0  0  0  0  0  0  0  0  0  0  0
   -0.7919   -5.7368   32.5380 C   0  0  0  0  0  0  0  0  0  0  0  0
   -1.2527   -6.9610   32.9722 N   0  0  0  0  0  0  0  0  0  0  0  0
   -0.9354   -7.7925   32.0135 C   0  0  0  0  0  0  0  0  0  0  0  0
   -0.2588   -7.1669   31.0128 N   0  0  0  0  0  0  0  0  0  0  0  0
    3.3409   -2.9656   31.2090 H   0  0  0  0  0  0  0  0  0  0  0  0
    4.2322   -3.1644   29.6944 H   0  0  0  0  0  0  0  0  0  0  0  0
    2.9366   -4.2939   30.0954 H   0  0  0  0  0  0  0  0  0  0  0  0
    2.6833   -1.3060   29.4284 H   0  0  0  0  0  0  0  0  0  0  0  0
    0.9615   -2.1531   27.6013 H   0  0  0  0  0  0  0  0  0  0  0  0
    1.8008   -3.6678   27.6749 H   0  0  0  0  0  0  0  0  0  0  0  0
    3.7714   -1.9318   26.7298 H   0  0  0  0  0  0  0  0  0  0  0  0
    3.7142   -0.4023   24.4544 H   0  0  0  0  0  0  0  0  0  0  0  0
    4.4990   -2.0185   24.3678 H   0  0  0  0  0  0  0  0  0  0  0  0
    2.5290   -0.7778   22.2913 H   0  0  0  0  0  0  0  0  0  0  0  0
    3.1086   -2.4228   22.1735 H   0  0  0  0  0  0  0  0  0  0  0  0
    4.9530   -2.7139   20.0481 H   0  0  0  0  0  0  0  0  0  0  0  0
    4.5960    1.3401   21.2795 H   0  0  0  0  0  0  0  0  0  0  0  0
    0.1101   -1.8586   29.6095 H   0  0  0  0  0  0  0  0  0  0  0  0
    1.0591   -1.5275   31.0553 H   0  0  0  0  0  0  0  0  0  0  0  0
    0.4007   -3.5211   31.8653 H   0  0  0  0  0  0  0  0  0  0  0  0
   -0.9433   -4.8543   33.1465 H   0  0  0  0  0  0  0  0  0  0  0  0
   -1.1539   -8.8506   32.0042 H   0  0  0  0  0  0  0  0  0  0  0  0
    0.1675   -7.6026   30.2000 H   0  0  0  0  0  0  0  0  0  0  0  0
  1  2  1  0
  2  3  1  0
  3  4  1  0
  4  5  1  0
  5  6  2  0
  5  7  1  0
  7  8  1  0
  8  9  1  0
  9 10  1  0
 10 11  2  0
 11 12  1  0
 12 13  1  0
  2 14  1  0
 14 15  1  0
 15 16  1  0
 16 17  2  0
 16 18  1  0
 18 19  2  0
 19 20  1  0
 20 21  2  0
 21 22  1  0
 13  9  2  0
 22 18  1  0
  1 23  1  0
  1 24  1  0
  1 25  1  0
  2 26  1  0
  3 27  1  0
  3 28  1  0
  4 29  1  0
  7 30  1  0
  7 31  1  0
  8 32  1  0
  8 33  1  0
 10 34  1  0
 13 35  1  0
 14 36  1  0
 14 37  1  0
 15 38  1  0
 19 39  1  0
 21 40  1  0
 22 41  1  0
M  END
>  <Energy>  (1058) 
24.911632503296801

>  <compound_id>  (1058) 
27064

>  <target_id>  (1058) 
1

>  <reference_id>  (1058) 
56

>  <inspiration_ids>  (1058) 
[114, 56]

>  <energy_score>  (1058) 
50.752516709350914

>  <distance_score>  (1058) 
8.117905008095779

>  <path>  (1058) 
/opt/xchem-fragalysis-2/maxwin/BulkDock/SCRATCH/511022/C27064-P56/C27064-P56.minimised.mol

>  <scratch_subdir>  (1058) 
/opt/xchem-fragalysis-2/maxwin/BulkDock/SCRATCH/511022/C27064-P56

>  <fragmenstein_runtime>  (1058) 
11.345446825027466

>  <fragmenstein_outcome>  (1058) 
too moved

>  <fragmenstein_mode>  (1058) 
expansion

>  <fragmenstein_error>  (1058) 


$$$$
C46408-P114
     RDKit          3D

 41 42  0  0  0  0  0  0  0  0999 V2000
    5.1839   -2.4442   32.2367 C   0  0  0  0  0  0  0  0  0  0  0  0
    5.2194   -2.3071   30.6940 C   0  0  0  0  0  0  0  0  0  0  0  0
    6.7833   -2.0869   30.1352 C   0  0  0  0  0  0  0  0  0  0  0  0
    7.2622   -1.6353   28.7381 N   0  0  0  0  0  0  0  0  0  0  0  0
    8.7515   -1.3886   28.1753 C   0  0  0  0  0  0  0  0  0  0  0  0
    9.8034   -1.5751   28.6869 O   0  0  0  0  0  0  0  0  0  0  0  0
    8.8113   -0.7574   26.6492 C   0  0  0  0  0  0  0  0  0  0  0  0
   10.3185   -0.5583   26.0320 C   0  0  0  0  0  0  0  0  0  0  0  0
   10.6952    0.1321   24.6276 C   0  0  0  0  0  0  0  0  0  0  0  0
   10.2995    1.2276   23.8678 C   0  0  0  0  0  0  0  0  0  0  0  0
   11.0750    1.4235   22.7410 N   0  0  0  0  0  0  0  0  0  0  0  0
   12.0512    0.5751   22.9363 C   0  0  0  0  0  0  0  0  0  0  0  0
   11.8594   -0.2935   23.9843 O   0  0  0  0  0  0  0  0  0  0  0  0
    4.5417   -3.5304   30.0390 C   0  0  0  0  0  0  0  0  0  0  0  0
    3.2054   -3.9570   30.5006 N   0  0  0  0  0  0  0  0  0  0  0  0
    2.7655   -4.6397   31.8285 C   0  0  0  0  0  0  0  0  0  0  0  0
    3.3817   -4.8965   32.7870 O   0  0  0  0  0  0  0  0  0  0  0  0
    1.3621   -5.0926   31.7617 C   0  0  0  0  0  0  0  0  0  0  0  0
    0.4203   -5.2693   32.7775 C   0  0  0  0  0  0  0  0  0  0  0  0
   -0.7062   -5.9500   32.3491 N   0  0  0  0  0  0  0  0  0  0  0  0
   -0.4357   -6.2587   31.1071 C   0  0  0  0  0  0  0  0  0  0  0  0
    0.7592   -5.7326   30.7015 N   0  0  0  0  0  0  0  0  0  0  0  0
    5.6370   -3.3867   32.5585 H   0  0  0  0  0  0  0  0  0  0  0  0
    4.1610   -2.3780   32.6164 H   0  0  0  0  0  0  0  0  0  0  0  0
    5.7493   -1.6269   32.6969 H   0  0  0  0  0  0  0  0  0  0  0  0
    4.6638   -1.4019   30.4192 H   0  0  0  0  0  0  0  0  0  0  0  0
    7.3280   -3.0206   30.3219 H   0  0  0  0  0  0  0  0  0  0  0  0
    7.2372   -1.3408   30.7995 H   0  0  0  0  0  0  0  0  0  0  0  0
    6.5826   -1.2901   28.0677 H   0  0  0  0  0  0  0  0  0  0  0  0
    8.2544   -1.4403   26.0041 H   0  0  0  0  0  0  0  0  0  0  0  0
    8.3213    0.2195   26.6934 H   0  0  0  0  0  0  0  0  0  0  0  0
   10.7707   -1.5588   25.9991 H   0  0  0  0  0  0  0  0  0  0  0  0
   10.8885    0.0089   26.7803 H   0  0  0  0  0  0  0  0  0  0  0  0
    9.4834    1.8994   24.0951 H   0  0  0  0  0  0  0  0  0  0  0  0
   12.9638    0.4442   22.3712 H   0  0  0  0  0  0  0  0  0  0  0  0
    5.1897   -4.4066   30.1517 H   0  0  0  0  0  0  0  0  0  0  0  0
    4.4387   -3.3086   28.9744 H   0  0  0  0  0  0  0  0  0  0  0  0
    2.3963   -3.8137   29.9094 H   0  0  0  0  0  0  0  0  0  0  0  0
    0.5294   -4.9704   33.8123 H   0  0  0  0  0  0  0  0  0  0  0  0
   -1.0380   -6.8703   30.4532 H   0  0  0  0  0  0  0  0  0  0  0  0
    1.2094   -5.9745   29.8345 H   0  0  0  0  0  0  0  0  0  0  0  0
  1  2  1  0
  2  3  1  0
  3  4  1  0
  4  5  1  0
  5  6  2  0
  5  7  1  0
  7  8  1  0
  8  9  1  0
  9 10  2  0
 10 11  1  0
 11 12  2  0
 12 13  1  0
  2 14  1  0
 14 15  1  0
 15 16  1  0
 16 17  2  0
 16 18  1  0
 18 19  2  0
 19 20  1  0
 20 21  2  0
 21 22  1  0
 13  9  1  0
 22 18  1  0
  1 23  1  0
  1 24  1  0
  1 25  1  0
  2 26  1  0
  3 27  1  0
  3 28  1  0
  4 29  1  0
  7 30  1  0
  7 31  1  0
  8 32  1  0
  8 33  1  0
 10 34  1  0
 12 35  1  0
 14 36  1  0
 14 37  1  0
 15 38  1  0
 19 39  1  0
 21 40  1  0
 22 41  1  0
M  END
>  <Energy>  (1059) 
35.401058972271187

>  <compound_id>  (1059) 
46408

>  <target_id>  (1059) 
1

>  <reference_id>  (1059) 
114

>  <inspiration_ids>  (1059) 
[114, 56]

>  <energy_score>  (1059) 
46.15752856143254

>  <distance_score>  (1059) 
7.978444039384892

>  <path>  (1059) 
/opt/xchem-fragalysis-2/maxwin/BulkDock/SCRATCH/511022/C46408-P114/C46408-P114.minimised.mol

>  <scratch_subdir>  (1059) 
/opt/xchem-fragalysis-2/maxwin/BulkDock/SCRATCH/511022/C46408-P114

>  <fragmenstein_runtime>  (1059) 
9.157460689544678

>  <fragmenstein_outcome>  (1059) 
too moved

>  <fragmenstein_mode>  (1059) 
expansion

>  <fragmenstein_error>  (1059) 


$$$$
C46408-P56
     RDKit          3D

 41 42  0  0  0  0  0  0  0  0999 V2000
    6.1551   -2.2059   31.4616 C   0  0  0  0  0  0  0  0  0  0  0  0
    5.3582   -3.4181   30.9923 C   0  0  0  0  0  0  0  0  0  0  0  0
    6.1317   -4.2406   29.9299 C   0  0  0  0  0  0  0  0  0  0  0  0
    6.8074   -3.5894   28.8084 N   0  0  0  0  0  0  0  0  0  0  0  0
    7.9835   -3.9728   28.0599 C   0  0  0  0  0  0  0  0  0  0  0  0
    8.7512   -4.8832   28.2202 O   0  0  0  0  0  0  0  0  0  0  0  0
    8.3409   -2.9898   26.8845 C   0  0  0  0  0  0  0  0  0  0  0  0
    7.7149   -2.8687   25.3602 C   0  0  0  0  0  0  0  0  0  0  0  0
    7.3005   -4.2795   23.9919 C   0  0  0  0  0  0  0  0  0  0  0  0
    7.7740   -5.7882   23.9320 C   0  0  0  0  0  0  0  0  0  0  0  0
    7.2814   -6.5716   23.0329 N   0  0  0  0  0  0  0  0  0  0  0  0
    7.5153   -5.6371   22.1889 C   0  0  0  0  0  0  0  0  0  0  0  0
    7.3945   -4.2379   22.6417 O   0  0  0  0  0  0  0  0  0  0  0  0
    3.9385   -3.0107   30.5625 C   0  0  0  0  0  0  0  0  0  0  0  0
    2.9072   -3.8923   31.0865 N   0  0  0  0  0  0  0  0  0  0  0  0
    1.7689   -4.4746   30.4596 C   0  0  0  0  0  0  0  0  0  0  0  0
    1.4107   -4.4532   29.3223 O   0  0  0  0  0  0  0  0  0  0  0  0
    0.9678   -5.2516   31.3907 C   0  0  0  0  0  0  0  0  0  0  0  0
    0.4970   -5.0134   32.6684 C   0  0  0  0  0  0  0  0  0  0  0  0
   -0.3121   -6.0376   33.1079 N   0  0  0  0  0  0  0  0  0  0  0  0
   -0.3156   -6.9117   32.1316 C   0  0  0  0  0  0  0  0  0  0  0  0
    0.4293   -6.4805   31.0753 N   0  0  0  0  0  0  0  0  0  0  0  0
    5.6611   -1.7183   32.3089 H   0  0  0  0  0  0  0  0  0  0  0  0
    7.1580   -2.5013   31.7878 H   0  0  0  0  0  0  0  0  0  0  0  0
    6.2620   -1.4654   30.6619 H   0  0  0  0  0  0  0  0  0  0  0  0
    5.2597   -4.0771   31.8669 H   0  0  0  0  0  0  0  0  0  0  0  0
    6.9223   -4.7973   30.4500 H   0  0  0  0  0  0  0  0  0  0  0  0
    5.4781   -5.0076   29.5061 H   0  0  0  0  0  0  0  0  0  0  0  0
    6.3518   -2.8114   28.3342 H   0  0  0  0  0  0  0  0  0  0  0  0
    8.2555   -1.9798   27.3133 H   0  0  0  0  0  0  0  0  0  0  0  0
    9.4259   -3.1246   26.7460 H   0  0  0  0  0  0  0  0  0  0  0  0
    8.5487   -2.2374   25.0143 H   0  0  0  0  0  0  0  0  0  0  0  0
    6.8539   -2.1823   25.4667 H   0  0  0  0  0  0  0  0  0  0  0  0
    8.5425   -6.2174   24.5904 H   0  0  0  0  0  0  0  0  0  0  0  0
    7.6983   -5.7443   21.1083 H   0  0  0  0  0  0  0  0  0  0  0  0
    3.8406   -2.9642   29.4734 H   0  0  0  0  0  0  0  0  0  0  0  0
    3.6844   -2.0188   30.9523 H   0  0  0  0  0  0  0  0  0  0  0  0
    2.9360   -4.1869   32.0582 H   0  0  0  0  0  0  0  0  0  0  0  0
    0.6677   -4.1422   33.2880 H   0  0  0  0  0  0  0  0  0  0  0  0
   -0.8179   -7.8684   32.1360 H   0  0  0  0  0  0  0  0  0  0  0  0
    0.6433   -7.0144   30.2400 H   0  0  0  0  0  0  0  0  0  0  0  0
  1  2  1  0
  2  3  1  0
  3  4  1  0
  4  5  1  0
  5  6  2  0
  5  7  1  0
  7  8  1  0
  8  9  1  0
  9 10  2  0
 10 11  1  0
 11 12  2  0
 12 13  1  0
  2 14  1  0
 14 15  1  0
 15 16  1  0
 16 17  2  0
 16 18  1  0
 18 19  2  0
 19 20  1  0
 20 21  2  0
 21 22  1  0
 13  9  1  0
 22 18  1  0
  1 23  1  0
  1 24  1  0
  1 25  1  0
  2 26  1  0
  3 27  1  0
  3 28  1  0
  4 29  1  0
  7 30  1  0
  7 31  1  0
  8 32  1  0
  8 33  1  0
 10 34  1  0
 12 35  1  0
 14 36  1  0
 14 37  1  0
 15 38  1  0
 19 39  1  0
 21 40  1  0
 22 41  1  0
M  END
>  <Energy>  (1060) 
133.26491935500209

>  <compound_id>  (1060) 
46408

>  <target_id>  (1060) 
1

>  <reference_id>  (1060) 
56

>  <inspiration_ids>  (1060) 
[114, 56]

>  <energy_score>  (1060) 
143.42197359869567

>  <distance_score>  (1060) 
8.218307428145305

>  <path>  (1060) 
/opt/xchem-fragalysis-2/maxwin/BulkDock/SCRATCH/511022/C46408-P56/C46408-P56.minimised.mol

>  <scratch_subdir>  (1060) 
/opt/xchem-fragalysis-2/maxwin/BulkDock/SCRATCH/511022/C46408-P56

>  <fragmenstein_runtime>  (1060) 
18.61894655227661

>  <fragmenstein_outcome>  (1060) 
too moved

>  <fragmenstein_mode>  (1060) 
expansion

>  <fragmenstein_error>  (1060) 


$$$$
C61457-P114
     RDKit          3D

 44 45  0  0  0  0  0  0  0  0999 V2000
    5.6547   -1.8935   31.1185 C   0  0  0  0  0  0  0  0  0  0  0  0
    5.7157   -3.1429   30.2408 C   0  0  0  0  0  0  0  0  0  0  0  0
    7.1263   -3.3451   29.6205 C   0  0  0  0  0  0  0  0  0  0  0  0
    7.5825   -2.4375   28.5787 N   0  0  0  0  0  0  0  0  0  0  0  0
    8.8869   -1.8639   28.3259 C   0  0  0  0  0  0  0  0  0  0  0  0
    9.9037   -1.9277   28.9568 O   0  0  0  0  0  0  0  0  0  0  0  0
    8.9075   -1.0783   26.9861 C   0  0  0  0  0  0  0  0  0  0  0  0
   10.3441   -0.6209   26.6214 C   0  0  0  0  0  0  0  0  0  0  0  0
   10.5190    0.1934   25.3651 C   0  0  0  0  0  0  0  0  0  0  0  0
   11.5045    0.0535   24.3480 C   0  0  0  0  0  0  0  0  0  0  0  0
   11.3840    0.9722   23.3827 N   0  0  0  0  0  0  0  0  0  0  0  0
   10.3315    1.7728   23.7746 O   0  0  0  0  0  0  0  0  0  0  0  0
    9.8494    1.3263   24.9623 C   0  0  0  0  0  0  0  0  0  0  0  0
    5.3846   -4.4003   31.0744 C   0  0  0  0  0  0  0  0  0  0  0  0
    4.0690   -4.4428   31.6709 N   0  0  0  0  0  0  0  0  0  0  0  0
    2.7693   -4.4305   31.0774 C   0  0  0  0  0  0  0  0  0  0  0  0
    2.4352   -4.3021   29.9386 O   0  0  0  0  0  0  0  0  0  0  0  0
    1.7253   -4.6775   32.0824 C   0  0  0  0  0  0  0  0  0  0  0  0
    1.6860   -4.4805   33.4567 C   0  0  0  0  0  0  0  0  0  0  0  0
    0.4975   -4.8863   34.0126 N   0  0  0  0  0  0  0  0  0  0  0  0
   -0.2126   -5.3173   32.9991 C   0  0  0  0  0  0  0  0  0  0  0  0
    0.4734   -5.2089   31.8230 N   0  0  0  0  0  0  0  0  0  0  0  0
   -0.0384   -5.6374   30.5462 C   0  0  0  0  0  0  0  0  0  0  0  0
    6.3516   -1.9638   31.9605 H   0  0  0  0  0  0  0  0  0  0  0  0
    4.6483   -1.7409   31.5214 H   0  0  0  0  0  0  0  0  0  0  0  0
    5.9165   -1.0021   30.5388 H   0  0  0  0  0  0  0  0  0  0  0  0
    4.9842   -3.0359   29.4307 H   0  0  0  0  0  0  0  0  0  0  0  0
    7.8874   -3.3400   30.4102 H   0  0  0  0  0  0  0  0  0  0  0  0
    7.1703   -4.3370   29.1543 H   0  0  0  0  0  0  0  0  0  0  0  0
    6.9752   -2.2453   27.7837 H   0  0  0  0  0  0  0  0  0  0  0  0
    8.2487   -0.2097   27.0941 H   0  0  0  0  0  0  0  0  0  0  0  0
    8.5138   -1.7220   26.1921 H   0  0  0  0  0  0  0  0  0  0  0  0
   10.9820   -1.5117   26.5454 H   0  0  0  0  0  0  0  0  0  0  0  0
   10.7507   -0.0270   27.4510 H   0  0  0  0  0  0  0  0  0  0  0  0
   12.2893   -0.6870   24.2636 H   0  0  0  0  0  0  0  0  0  0  0  0
    9.0437    1.9109   25.3807 H   0  0  0  0  0  0  0  0  0  0  0  0
    6.1074   -4.5232   31.8889 H   0  0  0  0  0  0  0  0  0  0  0  0
    5.4523   -5.2870   30.4335 H   0  0  0  0  0  0  0  0  0  0  0  0
    3.9792   -4.6576   32.6558 H   0  0  0  0  0  0  0  0  0  0  0  0
    2.4551   -4.0549   34.0878 H   0  0  0  0  0  0  0  0  0  0  0  0
   -1.2170   -5.7133   33.0618 H   0  0  0  0  0  0  0  0  0  0  0  0
    0.7465   -6.1400   29.9886 H   0  0  0  0  0  0  0  0  0  0  0  0
   -0.8653   -6.3349   30.7022 H   0  0  0  0  0  0  0  0  0  0  0  0
   -0.3791   -4.7520   30.0048 H   0  0  0  0  0  0  0  0  0  0  0  0
  1  2  1  0
  2  3  1  0
  3  4  1  0
  4  5  1  0
  5  6  2  0
  5  7  1  0
  7  8  1  0
  8  9  1  0
  9 10  1  0
 10 11  2  0
 11 12  1  0
 12 13  1  0
  2 14  1  0
 14 15  1  0
 15 16  1  0
 16 17  2  0
 16 18  1  0
 18 19  2  0
 19 20  1  0
 20 21  2  0
 21 22  1  0
 22 23  1  0
 13  9  2  0
 22 18  1  0
  1 24  1  0
  1 25  1  0
  1 26  1  0
  2 27  1  0
  3 28  1  0
  3 29  1  0
  4 30  1  0
  7 31  1  0
  7 32  1  0
  8 33  1  0
  8 34  1  0
 10 35  1  0
 13 36  1  0
 14 37  1  0
 14 38  1  0
 15 39  1  0
 19 40  1  0
 21 41  1  0
 23 42  1  0
 23 43  1  0
 23 44  1  0
M  END
>  <Energy>  (1061) 
-44.552677554186509

>  <compound_id>  (1061) 
61457

>  <target_id>  (1061) 
1

>  <reference_id>  (1061) 
114

>  <inspiration_ids>  (1061) 
[114, 56]

>  <energy_score>  (1061) 
-17.860156930610373

>  <distance_score>  (1061) 
8.297423984106945

>  <path>  (1061) 
/opt/xchem-fragalysis-2/maxwin/BulkDock/SCRATCH/511022/C61457-P114/C61457-P114.minimised.mol

>  <scratch_subdir>  (1061) 
/opt/xchem-fragalysis-2/maxwin/BulkDock/SCRATCH/511022/C61457-P114

>  <fragmenstein_runtime>  (1061) 
22.661728143692017

>  <fragmenstein_outcome>  (1061) 
too moved

>  <fragmenstein_mode>  (1061) 
expansion

>  <fragmenstein_error>  (1061) 


$$$$
C61457-P56
     RDKit          3D

 44 45  0  0  0  0  0  0  0  0999 V2000
    5.3854   -4.1102   31.6667 C   0  0  0  0  0  0  0  0  0  0  0  0
    4.3058   -3.4564   30.8057 C   0  0  0  0  0  0  0  0  0  0  0  0
    4.8209   -2.1636   30.1153 C   0  0  0  0  0  0  0  0  0  0  0  0
    5.9048   -2.2578   29.1392 N   0  0  0  0  0  0  0  0  0  0  0  0
    7.2811   -1.8244   29.2084 C   0  0  0  0  0  0  0  0  0  0  0  0
    7.9057   -1.3493   30.1137 O   0  0  0  0  0  0  0  0  0  0  0  0
    7.9681   -1.9321   27.8152 C   0  0  0  0  0  0  0  0  0  0  0  0
    9.3312   -1.2112   27.8151 C   0  0  0  0  0  0  0  0  0  0  0  0
   10.0454   -1.0318   26.5005 C   0  0  0  0  0  0  0  0  0  0  0  0
   11.0923   -1.8121   25.9489 C   0  0  0  0  0  0  0  0  0  0  0  0
   11.6490   -1.2422   24.8781 N   0  0  0  0  0  0  0  0  0  0  0  0
   10.9342   -0.0740   24.6705 O   0  0  0  0  0  0  0  0  0  0  0  0
    9.9842    0.0394   25.6335 C   0  0  0  0  0  0  0  0  0  0  0  0
    3.0779   -3.1054   31.6781 C   0  0  0  0  0  0  0  0  0  0  0  0
    2.2517   -4.2339   32.0594 N   0  0  0  0  0  0  0  0  0  0  0  0
    1.0514   -4.7542   31.4836 C   0  0  0  0  0  0  0  0  0  0  0  0
    0.4635   -4.4403   30.4925 O   0  0  0  0  0  0  0  0  0  0  0  0
    0.4615   -5.8086   32.3116 C   0  0  0  0  0  0  0  0  0  0  0  0
    0.4120   -5.9762   33.6890 C   0  0  0  0  0  0  0  0  0  0  0  0
   -0.3153   -7.0874   34.0537 N   0  0  0  0  0  0  0  0  0  0  0  0
   -0.7333   -7.5945   32.9199 C   0  0  0  0  0  0  0  0  0  0  0  0
   -0.2811   -6.8755   31.8487 N   0  0  0  0  0  0  0  0  0  0  0  0
   -0.5479   -7.2328   30.4807 C   0  0  0  0  0  0  0  0  0  0  0  0
    6.2458   -4.4002   31.0548 H   0  0  0  0  0  0  0  0  0  0  0  0
    5.7410   -3.4282   32.4464 H   0  0  0  0  0  0  0  0  0  0  0  0
    5.0066   -5.0146   32.1536 H   0  0  0  0  0  0  0  0  0  0  0  0
    4.0033   -4.1710   30.0339 H   0  0  0  0  0  0  0  0  0  0  0  0
    5.1492   -1.4523   30.8829 H   0  0  0  0  0  0  0  0  0  0  0  0
    3.9926   -1.6927   29.5732 H   0  0  0  0  0  0  0  0  0  0  0  0
    5.6907   -2.5348   28.1792 H   0  0  0  0  0  0  0  0  0  0  0  0
    8.1066   -2.9909   27.5778 H   0  0  0  0  0  0  0  0  0  0  0  0
    7.3138   -1.4784   27.0630 H   0  0  0  0  0  0  0  0  0  0  0  0
    9.2021   -0.2099   28.2496 H   0  0  0  0  0  0  0  0  0  0  0  0
   10.0065   -1.7413   28.5007 H   0  0  0  0  0  0  0  0  0  0  0  0
   11.5031   -2.7447   26.3091 H   0  0  0  0  0  0  0  0  0  0  0  0
    9.3986    0.9459   25.5987 H   0  0  0  0  0  0  0  0  0  0  0  0
    3.3831   -2.5983   32.5999 H   0  0  0  0  0  0  0  0  0  0  0  0
    2.4202   -2.4247   31.1254 H   0  0  0  0  0  0  0  0  0  0  0  0
    2.5050   -4.8004   32.8633 H   0  0  0  0  0  0  0  0  0  0  0  0
    0.8489   -5.3366   34.4455 H   0  0  0  0  0  0  0  0  0  0  0  0
   -1.3488   -8.4790   32.8156 H   0  0  0  0  0  0  0  0  0  0  0  0
    0.1315   -6.7252   29.7979 H   0  0  0  0  0  0  0  0  0  0  0  0
   -0.4371   -8.3133   30.3687 H   0  0  0  0  0  0  0  0  0  0  0  0
   -1.5755   -6.9572   30.2598 H   0  0  0  0  0  0  0  0  0  0  0  0
  1  2  1  0
  2  3  1  0
  3  4  1  0
  4  5  1  0
  5  6  2  0
  5  7  1  0
  7  8  1  0
  8  9  1  0
  9 10  1  0
 10 11  2  0
 11 12  1  0
 12 13  1  0
  2 14  1  0
 14 15  1  0
 15 16  1  0
 16 17  2  0
 16 18  1  0
 18 19  2  0
 19 20  1  0
 20 21  2  0
 21 22  1  0
 22 23  1  0
 13  9  2  0
 22 18  1  0
  1 24  1  0
  1 25  1  0
  1 26  1  0
  2 27  1  0
  3 28  1  0
  3 29  1  0
  4 30  1  0
  7 31  1  0
  7 32  1  0
  8 33  1  0
  8 34  1  0
 10 35  1  0
 13 36  1  0
 14 37  1  0
 14 38  1  0
 15 39  1  0
 19 40  1  0
 21 41  1  0
 23 42  1  0
 23 43  1  0
 23 44  1  0
M  END
>  <Energy>  (1062) 
-42.303973618783886

>  <compound_id>  (1062) 
61457

>  <target_id>  (1062) 
1

>  <reference_id>  (1062) 
56

>  <inspiration_ids>  (1062) 
[114, 56]

>  <energy_score>  (1062) 
-15.611452995207372

>  <distance_score>  (1062) 
7.797462658253129

>  <path>  (1062) 
/opt/xchem-fragalysis-2/maxwin/BulkDock/SCRATCH/511022/C61457-P56/C61457-P56.minimised.mol

>  <scratch_subdir>  (1062) 
/opt/xchem-fragalysis-2/maxwin/BulkDock/SCRATCH/511022/C61457-P56

>  <fragmenstein_runtime>  (1062) 
16.151952743530273

>  <fragmenstein_outcome>  (1062) 
too moved

>  <fragmenstein_mode>  (1062) 
expansion

>  <fragmenstein_error>  (1062) 


$$$$
C8992-P114
     RDKit          3D

 44 45  0  0  0  0  0  0  0  0999 V2000
    2.2347   -1.9920   26.9500 C   0  0  0  0  0  0  0  0  0  0  0  0
    0.7313   -2.2518   26.9000 C   0  0  0  0  0  0  0  0  0  0  0  0
    0.0135   -1.6410   25.6696 C   0  0  0  0  0  0  0  0  0  0  0  0
    0.5410   -1.7622   24.3184 N   0  0  0  0  0  0  0  0  0  0  0  0
    0.0491   -2.4899   23.1727 C   0  0  0  0  0  0  0  0  0  0  0  0
   -0.8747   -3.2447   23.0641 O   0  0  0  0  0  0  0  0  0  0  0  0
    0.8275   -2.1070   21.8950 C   0  0  0  0  0  0  0  0  0  0  0  0
    2.1184   -2.8830   21.7056 C   0  0  0  0  0  0  0  0  0  0  0  0
    3.0431   -2.3263   20.6496 C   0  0  0  0  0  0  0  0  0  0  0  0
    4.2955   -1.7800   20.8716 C   0  0  0  0  0  0  0  0  0  0  0  0
    4.9006   -1.0760   19.4529 S   0  0  0  0  0  0  0  0  0  0  0  0
    3.5626   -1.7139   18.5948 C   0  0  0  0  0  0  0  0  0  0  0  0
    2.6608   -2.3374   19.3185 N   0  0  0  0  0  0  0  0  0  0  0  0
    0.4090   -3.7357   27.1038 C   0  0  0  0  0  0  0  0  0  0  0  0
    0.4553   -4.0688   28.5184 N   0  0  0  0  0  0  0  0  0  0  0  0
   -0.0464   -5.1999   29.2322 C   0  0  0  0  0  0  0  0  0  0  0  0
   -0.5640   -6.2017   28.8393 O   0  0  0  0  0  0  0  0  0  0  0  0
    0.0594   -5.0067   30.6913 C   0  0  0  0  0  0  0  0  0  0  0  0
    0.5120   -3.9483   31.4683 C   0  0  0  0  0  0  0  0  0  0  0  0
    0.3652   -4.1789   32.8100 N   0  0  0  0  0  0  0  0  0  0  0  0
   -0.1484   -5.3789   32.8884 C   0  0  0  0  0  0  0  0  0  0  0  0
   -0.3458   -5.9187   31.6523 N   0  0  0  0  0  0  0  0  0  0  0  0
   -0.9139   -7.2218   31.4371 C   0  0  0  0  0  0  0  0  0  0  0  0
    2.4414   -0.9188   26.8808 H   0  0  0  0  0  0  0  0  0  0  0  0
    2.7480   -2.4855   26.1181 H   0  0  0  0  0  0  0  0  0  0  0  0
    2.6720   -2.3580   27.8845 H   0  0  0  0  0  0  0  0  0  0  0  0
    0.2978   -1.7139   27.7569 H   0  0  0  0  0  0  0  0  0  0  0  0
   -0.0476   -0.5575   25.8341 H   0  0  0  0  0  0  0  0  0  0  0  0
   -1.0224   -1.9997   25.6409 H   0  0  0  0  0  0  0  0  0  0  0  0
    1.2946   -1.1514   24.0232 H   0  0  0  0  0  0  0  0  0  0  0  0
    0.9961   -1.0245   21.8981 H   0  0  0  0  0  0  0  0  0  0  0  0
    0.1637   -2.2834   21.0380 H   0  0  0  0  0  0  0  0  0  0  0  0
    1.8709   -3.9165   21.4421 H   0  0  0  0  0  0  0  0  0  0  0  0
    2.6440   -2.8999   22.6644 H   0  0  0  0  0  0  0  0  0  0  0  0
    4.8089   -1.6838   21.8147 H   0  0  0  0  0  0  0  0  0  0  0  0
    3.4524   -1.6066   17.5253 H   0  0  0  0  0  0  0  0  0  0  0  0
    1.1074   -4.3843   26.5697 H   0  0  0  0  0  0  0  0  0  0  0  0
   -0.5914   -3.9904   26.7496 H   0  0  0  0  0  0  0  0  0  0  0  0
    0.7508   -3.3698   29.1786 H   0  0  0  0  0  0  0  0  0  0  0  0
    0.9278   -3.0032   31.1462 H   0  0  0  0  0  0  0  0  0  0  0  0
   -0.3870   -5.9003   33.8054 H   0  0  0  0  0  0  0  0  0  0  0  0
   -0.2796   -7.7879   30.7584 H   0  0  0  0  0  0  0  0  0  0  0  0
   -0.9935   -7.7517   32.3900 H   0  0  0  0  0  0  0  0  0  0  0  0
   -1.9107   -7.0923   31.0204 H   0  0  0  0  0  0  0  0  0  0  0  0
  1  2  1  0
  2  3  1  0
  3  4  1  0
  4  5  1  0
  5  6  2  0
  5  7  1  0
  7  8  1  0
  8  9  1  0
  9 10  2  0
 10 11  1  0
 11 12  1  0
 12 13  2  0
  2 14  1  0
 14 15  1  0
 15 16  1  0
 16 17  2  0
 16 18  1  0
 18 19  2  0
 19 20  1  0
 20 21  2  0
 21 22  1  0
 22 23  1  0
 13  9  1  0
 22 18  1  0
  1 24  1  0
  1 25  1  0
  1 26  1  0
  2 27  1  0
  3 28  1  0
  3 29  1  0
  4 30  1  0
  7 31  1  0
  7 32  1  0
  8 33  1  0
  8 34  1  0
 10 35  1  0
 12 36  1  0
 14 37  1  0
 14 38  1  0
 15 39  1  0
 19 40  1  0
 21 41  1  0
 23 42  1  0
 23 43  1  0
 23 44  1  0
M  END
>  <Energy>  (1063) 
-33.715508670163153

>  <compound_id>  (1063) 
8992

>  <target_id>  (1063) 
1

>  <reference_id>  (1063) 
114

>  <inspiration_ids>  (1063) 
[114, 56]

>  <energy_score>  (1063) 
-27.20282055663077

>  <distance_score>  (1063) 
9.47906094658657

>  <path>  (1063) 
/opt/xchem-fragalysis-2/maxwin/BulkDock/SCRATCH/511022/C8992-P114/C8992-P114.minimised.mol

>  <scratch_subdir>  (1063) 
/opt/xchem-fragalysis-2/maxwin/BulkDock/SCRATCH/511022/C8992-P114

>  <fragmenstein_runtime>  (1063) 
19.394752979278564

>  <fragmenstein_outcome>  (1063) 
too moved

>  <fragmenstein_mode>  (1063) 
expansion

>  <fragmenstein_error>  (1063) 


$$$$
C8992-P56
     RDKit          3D

 44 45  0  0  0  0  0  0  0  0999 V2000
    5.2849   -3.6033   32.4620 C   0  0  0  0  0  0  0  0  0  0  0  0
    5.4994   -3.2614   30.9754 C   0  0  0  0  0  0  0  0  0  0  0  0
    6.6514   -2.2376   30.8629 C   0  0  0  0  0  0  0  0  0  0  0  0
    7.1876   -1.9596   29.5414 N   0  0  0  0  0  0  0  0  0  0  0  0
    8.2516   -2.5944   28.7986 C   0  0  0  0  0  0  0  0  0  0  0  0
    8.9094   -3.5624   29.0500 O   0  0  0  0  0  0  0  0  0  0  0  0
    8.5804   -1.7517   27.5387 C   0  0  0  0  0  0  0  0  0  0  0  0
   10.0015   -2.0421   27.0229 C   0  0  0  0  0  0  0  0  0  0  0  0
   10.5597   -1.1297   25.9505 C   0  0  0  0  0  0  0  0  0  0  0  0
   10.1362    0.1309   25.5641 C   0  0  0  0  0  0  0  0  0  0  0  0
   11.1952    0.8022   24.3847 S   0  0  0  0  0  0  0  0  0  0  0  0
   12.1406   -0.6245   24.4660 C   0  0  0  0  0  0  0  0  0  0  0  0
   11.7080   -1.5548   25.2884 N   0  0  0  0  0  0  0  0  0  0  0  0
    4.2153   -2.7236   30.3230 C   0  0  0  0  0  0  0  0  0  0  0  0
    3.0362   -3.4770   30.6867 N   0  0  0  0  0  0  0  0  0  0  0  0
    1.9934   -3.1923   31.6215 C   0  0  0  0  0  0  0  0  0  0  0  0
    1.7870   -2.2219   32.2854 O   0  0  0  0  0  0  0  0  0  0  0  0
    1.0646   -4.3180   31.7553 C   0  0  0  0  0  0  0  0  0  0  0  0
    1.2167   -5.6766   31.5327 C   0  0  0  0  0  0  0  0  0  0  0  0
    0.0896   -6.3931   31.8361 N   0  0  0  0  0  0  0  0  0  0  0  0
   -0.7288   -5.5074   32.3370 C   0  0  0  0  0  0  0  0  0  0  0  0
   -0.2184   -4.2453   32.2600 N   0  0  0  0  0  0  0  0  0  0  0  0
   -0.9161   -3.0511   32.6556 C   0  0  0  0  0  0  0  0  0  0  0  0
    4.5724   -4.4254   32.5843 H   0  0  0  0  0  0  0  0  0  0  0  0
    4.9144   -2.7358   33.0185 H   0  0  0  0  0  0  0  0  0  0  0  0
    6.2242   -3.9259   32.9244 H   0  0  0  0  0  0  0  0  0  0  0  0
    5.7906   -4.1859   30.4597 H   0  0  0  0  0  0  0  0  0  0  0  0
    6.3482   -1.2740   31.2879 H   0  0  0  0  0  0  0  0  0  0  0  0
    7.5023   -2.5995   31.4526 H   0  0  0  0  0  0  0  0  0  0  0  0
    6.8001   -1.2055   28.9853 H   0  0  0  0  0  0  0  0  0  0  0  0
    7.8403   -1.9715   26.7633 H   0  0  0  0  0  0  0  0  0  0  0  0
    8.4992   -0.6902   27.8003 H   0  0  0  0  0  0  0  0  0  0  0  0
   10.0420   -3.0743   26.6545 H   0  0  0  0  0  0  0  0  0  0  0  0
   10.7017   -1.9957   27.8681 H   0  0  0  0  0  0  0  0  0  0  0  0
    9.2945    0.7002   25.9273 H   0  0  0  0  0  0  0  0  0  0  0  0
   13.0321   -0.7548   23.8662 H   0  0  0  0  0  0  0  0  0  0  0  0
    4.3008   -2.7400   29.2321 H   0  0  0  0  0  0  0  0  0  0  0  0
    4.0410   -1.6869   30.6328 H   0  0  0  0  0  0  0  0  0  0  0  0
    2.8495   -4.3669   30.2471 H   0  0  0  0  0  0  0  0  0  0  0  0
    2.1044   -6.1868   31.2003 H   0  0  0  0  0  0  0  0  0  0  0  0
   -1.6872   -5.7340   32.7720 H   0  0  0  0  0  0  0  0  0  0  0  0
   -1.9910   -3.2138   32.5855 H   0  0  0  0  0  0  0  0  0  0  0  0
   -0.6648   -2.2356   31.9732 H   0  0  0  0  0  0  0  0  0  0  0  0
   -0.6325   -2.8049   33.6814 H   0  0  0  0  0  0  0  0  0  0  0  0
  1  2  1  0
  2  3  1  0
  3  4  1  0
  4  5  1  0
  5  6  2  0
  5  7  1  0
  7  8  1  0
  8  9  1  0
  9 10  2  0
 10 11  1  0
 11 12  1  0
 12 13  2  0
  2 14  1  0
 14 15  1  0
 15 16  1  0
 16 17  2  0
 16 18  1  0
 18 19  2  0
 19 20  1  0
 20 21  2  0
 21 22  1  0
 22 23  1  0
 13  9  1  0
 22 18  1  0
  1 24  1  0
  1 25  1  0
  1 26  1  0
  2 27  1  0
  3 28  1  0
  3 29  1  0
  4 30  1  0
  7 31  1  0
  7 32  1  0
  8 33  1  0
  8 34  1  0
 10 35  1  0
 12 36  1  0
 14 37  1  0
 14 38  1  0
 15 39  1  0
 19 40  1  0
 21 41  1  0
 23 42  1  0
 23 43  1  0
 23 44  1  0
M  END
>  <Energy>  (1064) 
-37.67172222102721

>  <compound_id>  (1064) 
8992

>  <target_id>  (1064) 
1

>  <reference_id>  (1064) 
56

>  <inspiration_ids>  (1064) 
[114, 56]

>  <energy_score>  (1064) 
-31.159034107493994

>  <distance_score>  (1064) 
8.187223843013767

>  <path>  (1064) 
/opt/xchem-fragalysis-2/maxwin/BulkDock/SCRATCH/511022/C8992-P56/C8992-P56.minimised.mol

>  <scratch_subdir>  (1064) 
/opt/xchem-fragalysis-2/maxwin/BulkDock/SCRATCH/511022/C8992-P56

>  <fragmenstein_runtime>  (1064) 
19.968348026275635

>  <fragmenstein_outcome>  (1064) 
too moved

>  <fragmenstein_mode>  (1064) 
expansion

>  <fragmenstein_error>  (1064) 


$$$$
C36210-P53
     RDKit          3D

 50 53  0  0  0  0  0  0  0  0999 V2000
   10.3368    0.1811   26.1032 C   0  0  0  0  0  0  0  0  0  0  0  0
   11.4826   -0.3414   25.4684 C   0  0  0  0  0  0  0  0  0  0  0  0
   12.1189    0.3411   24.4194 C   0  0  0  0  0  0  0  0  0  0  0  0
   11.5592    1.5424   23.9692 C   0  0  0  0  0  0  0  0  0  0  0  0
   10.4259    2.0720   24.6331 C   0  0  0  0  0  0  0  0  0  0  0  0
    9.8077    1.4227   25.7354 C   0  0  0  0  0  0  0  0  0  0  0  0
    8.5308    2.0245   26.3917 C   0  0  0  0  0  0  0  0  0  0  0  0
    8.2579    1.8011   27.8234 N   0  0  0  0  0  0  0  0  0  0  0  0
    9.2509    2.5316   28.6381 C   0  0  0  0  0  0  0  0  0  0  0  0
    8.7115    3.9474   28.8108 C   0  0  0  0  0  0  0  0  0  0  0  0
    7.2196    3.8493   28.5323 C   0  0  0  0  0  0  0  0  0  0  0  0
    6.9573    2.3487   28.3441 C   0  0  0  0  0  0  0  0  0  0  0  0
    5.5220    2.0659   27.7895 C   0  0  0  0  0  0  0  0  0  0  0  0
    5.2127    0.5941   27.5084 C   0  0  0  0  0  0  0  0  0  0  0  0
    3.7137    0.3825   27.2421 C   0  0  0  0  0  0  0  0  0  0  0  0
    3.0464    1.5522   26.7640 O   0  0  0  0  0  0  0  0  0  0  0  0
    3.8508    2.3156   25.8786 C   0  0  0  0  0  0  0  0  0  0  0  0
    5.0460    2.9286   26.6122 C   0  0  0  0  0  0  0  0  0  0  0  0
   12.1322    2.2180   22.7432 C   0  0  0  0  0  0  0  0  0  0  0  0
   13.5376    1.7177   22.3667 C   0  0  0  0  0  0  0  0  0  0  0  0
   13.6828    0.2632   22.4621 N   0  0  0  0  0  0  0  0  0  0  0  0
   13.4285   -0.1692   23.8474 C   0  0  0  0  0  0  0  0  0  0  0  0
    9.8754   -0.3826   26.9124 H   0  0  0  0  0  0  0  0  0  0  0  0
   11.8861   -1.2895   25.8191 H   0  0  0  0  0  0  0  0  0  0  0  0
   10.0210    3.0198   24.2824 H   0  0  0  0  0  0  0  0  0  0  0  0
    7.6835    1.5650   25.8941 H   0  0  0  0  0  0  0  0  0  0  0  0
    8.5179    3.0987   26.1724 H   0  0  0  0  0  0  0  0  0  0  0  0
   10.2660    2.5242   28.2270 H   0  0  0  0  0  0  0  0  0  0  0  0
    9.3166    2.0447   29.6197 H   0  0  0  0  0  0  0  0  0  0  0  0
    9.1817    4.6359   28.0995 H   0  0  0  0  0  0  0  0  0  0  0  0
    8.9079    4.3227   29.8204 H   0  0  0  0  0  0  0  0  0  0  0  0
    6.9890    4.4302   27.6332 H   0  0  0  0  0  0  0  0  0  0  0  0
    6.6324    4.2606   29.3602 H   0  0  0  0  0  0  0  0  0  0  0  0
    6.9069    1.9170   29.3579 H   0  0  0  0  0  0  0  0  0  0  0  0
    4.8579    2.3420   28.6257 H   0  0  0  0  0  0  0  0  0  0  0  0
    5.5322   -0.0502   28.3354 H   0  0  0  0  0  0  0  0  0  0  0  0
    5.7791    0.2665   26.6277 H   0  0  0  0  0  0  0  0  0  0  0  0
    3.5669   -0.4303   26.5222 H   0  0  0  0  0  0  0  0  0  0  0  0
    3.2103    0.0876   28.1689 H   0  0  0  0  0  0  0  0  0  0  0  0
    3.2337    3.1072   25.4413 H   0  0  0  0  0  0  0  0  0  0  0  0
    4.1818    1.6742   25.0543 H   0  0  0  0  0  0  0  0  0  0  0  0
    5.8533    3.1193   25.9028 H   0  0  0  0  0  0  0  0  0  0  0  0
    4.7451    3.9091   27.0030 H   0  0  0  0  0  0  0  0  0  0  0  0
   11.4394    2.0383   21.9133 H   0  0  0  0  0  0  0  0  0  0  0  0
   12.1770    3.3010   22.9084 H   0  0  0  0  0  0  0  0  0  0  0  0
   13.7751    2.0408   21.3470 H   0  0  0  0  0  0  0  0  0  0  0  0
   14.2839    2.1935   23.0163 H   0  0  0  0  0  0  0  0  0  0  0  0
   12.9275   -0.1918   21.9414 H   0  0  0  0  0  0  0  0  0  0  0  0
   13.4395   -1.2653   23.8687 H   0  0  0  0  0  0  0  0  0  0  0  0
   14.2483    0.1704   24.4924 H   0  0  0  0  0  0  0  0  0  0  0  0
  1  2  2  0
  2  3  1  0
  3  4  2  0
  4  5  1  0
  5  6  2  0
  6  7  1  0
  7  8  1  0
  8  9  1  0
  9 10  1  0
 10 11  1  0
 11 12  1  0
 12 13  1  0
 13 14  1  0
 14 15  1  0
 15 16  1  0
 16 17  1  0
 17 18  1  0
  4 19  1  0
 19 20  1  0
 20 21  1  0
 21 22  1  0
  6  1  1  0
 12  8  1  0
 18 13  1  0
 22  3  1  0
  1 23  1  0
  2 24  1  0
  5 25  1  0
  7 26  1  0
  7 27  1  0
  9 28  1  0
  9 29  1  0
 10 30  1  0
 10 31  1  0
 11 32  1  0
 11 33  1  0
 12 34  1  0
 13 35  1  0
 14 36  1  0
 14 37  1  0
 15 38  1  0
 15 39  1  0
 17 40  1  0
 17 41  1  0
 18 42  1  0
 18 43  1  0
 19 44  1  0
 19 45  1  0
 20 46  1  0
 20 47  1  0
 21 48  1  0
 22 49  1  0
 22 50  1  0
M  END
>  <Energy>  (1065) 
72.478611470279901

>  <compound_id>  (1065) 
36210

>  <target_id>  (1065) 
1

>  <reference_id>  (1065) 
53

>  <inspiration_ids>  (1065) 
[53, 146]

>  <energy_score>  (1065) 
-27.172940246804274

>  <distance_score>  (1065) 
7.893776840943794

>  <path>  (1065) 
/opt/xchem-fragalysis-2/maxwin/BulkDock/SCRATCH/511022/C36210-P53/C36210-P53.minimised.mol

>  <scratch_subdir>  (1065) 
/opt/xchem-fragalysis-2/maxwin/BulkDock/SCRATCH/511022/C36210-P53

>  <fragmenstein_runtime>  (1065) 
6.59212589263916

>  <fragmenstein_outcome>  (1065) 
too moved

>  <fragmenstein_mode>  (1065) 
expansion

>  <fragmenstein_error>  (1065) 


$$$$
C36210-P146
     RDKit          3D

 50 53  0  0  0  0  0  0  0  0999 V2000
    9.6727    0.2551   20.2326 C   0  0  0  0  0  0  0  0  0  0  0  0
   10.2823   -0.0065   18.3297 C   0  0  0  0  0  0  0  0  0  0  0  0
   11.8130   -1.4017   18.0784 C   0  0  0  0  0  0  0  0  0  0  0  0
   13.3780   -1.2829   19.4563 C   0  0  0  0  0  0  0  0  0  0  0  0
   12.9626   -0.5790   21.1932 C   0  0  0  0  0  0  0  0  0  0  0  0
   11.1928    0.3478   21.4827 C   0  0  0  0  0  0  0  0  0  0  0  0
   10.8278    1.1209   22.8144 C   0  0  0  0  0  0  0  0  0  0  0  0
   11.6577    2.0175   23.6444 N   0  0  0  0  0  0  0  0  0  0  0  0
   12.3771    2.9995   22.8270 C   0  0  0  0  0  0  0  0  0  0  0  0
   11.4163    4.1480   22.5806 C   0  0  0  0  0  0  0  0  0  0  0  0
   10.4553    4.1219   23.7527 C   0  0  0  0  0  0  0  0  0  0  0  0
   10.8528    2.9000   24.6098 C   0  0  0  0  0  0  0  0  0  0  0  0
    9.6198    2.3951   25.4442 C   0  0  0  0  0  0  0  0  0  0  0  0
    8.7631    3.5230   26.0878 C   0  0  0  0  0  0  0  0  0  0  0  0
    7.6810    3.0065   27.0426 C   0  0  0  0  0  0  0  0  0  0  0  0
    7.4026    1.6376   26.7912 O   0  0  0  0  0  0  0  0  0  0  0  0
    8.5326    0.8115   27.0972 C   0  0  0  0  0  0  0  0  0  0  0  0
    9.8645    1.3352   26.5117 C   0  0  0  0  0  0  0  0  0  0  0  0
   14.5672   -2.1413   19.0627 C   0  0  0  0  0  0  0  0  0  0  0  0
   14.1870   -3.0823   17.8726 C   0  0  0  0  0  0  0  0  0  0  0  0
   13.6269   -2.4426   16.6578 N   0  0  0  0  0  0  0  0  0  0  0  0
   12.1831   -2.1444   16.7527 C   0  0  0  0  0  0  0  0  0  0  0  0
    8.8227    0.9234   20.4055 H   0  0  0  0  0  0  0  0  0  0  0  0
    9.5930    0.2736   17.5034 H   0  0  0  0  0  0  0  0  0  0  0  0
   13.7219   -0.5222   21.9748 H   0  0  0  0  0  0  0  0  0  0  0  0
   10.0111    1.7541   22.4600 H   0  0  0  0  0  0  0  0  0  0  0  0
   10.4984    0.3449   23.5048 H   0  0  0  0  0  0  0  0  0  0  0  0
   13.2371    3.3635   23.4037 H   0  0  0  0  0  0  0  0  0  0  0  0
   12.7862    2.5917   21.8973 H   0  0  0  0  0  0  0  0  0  0  0  0
   10.8675    3.9967   21.6435 H   0  0  0  0  0  0  0  0  0  0  0  0
   11.9428    5.1048   22.5067 H   0  0  0  0  0  0  0  0  0  0  0  0
    9.4365    4.0447   23.3607 H   0  0  0  0  0  0  0  0  0  0  0  0
   10.5259    5.0480   24.3336 H   0  0  0  0  0  0  0  0  0  0  0  0
   11.5915    3.2455   25.3479 H   0  0  0  0  0  0  0  0  0  0  0  0
    8.9975    1.9060   24.7248 H   0  0  0  0  0  0  0  0  0  0  0  0
    8.2703    4.1106   25.3057 H   0  0  0  0  0  0  0  0  0  0  0  0
    9.4056    4.2284   26.6291 H   0  0  0  0  0  0  0  0  0  0  0  0
    7.9911    3.1303   28.0873 H   0  0  0  0  0  0  0  0  0  0  0  0
    6.7573    3.5791   26.9104 H   0  0  0  0  0  0  0  0  0  0  0  0
    8.3202   -0.1833   26.6916 H   0  0  0  0  0  0  0  0  0  0  0  0
    8.6126    0.6999   28.1847 H   0  0  0  0  0  0  0  0  0  0  0  0
   10.4659    1.7661   27.3223 H   0  0  0  0  0  0  0  0  0  0  0  0
   10.4461    0.4941   26.1176 H   0  0  0  0  0  0  0  0  0  0  0  0
   15.3937   -1.4824   18.7784 H   0  0  0  0  0  0  0  0  0  0  0  0
   14.8722   -2.7453   19.9225 H   0  0  0  0  0  0  0  0  0  0  0  0
   15.1031   -3.6023   17.5682 H   0  0  0  0  0  0  0  0  0  0  0  0
   13.5012   -3.8653   18.2223 H   0  0  0  0  0  0  0  0  0  0  0  0
   14.1364   -1.5796   16.4673 H   0  0  0  0  0  0  0  0  0  0  0  0
   11.8892   -1.5152   15.9065 H   0  0  0  0  0  0  0  0  0  0  0  0
   11.6235   -3.0801   16.6843 H   0  0  0  0  0  0  0  0  0  0  0  0
  1  2  2  0
  2  3  1  0
  3  4  2  0
  4  5  1  0
  5  6  2  0
  6  7  1  0
  7  8  1  0
  8  9  1  0
  9 10  1  0
 10 11  1  0
 11 12  1  0
 12 13  1  0
 13 14  1  0
 14 15  1  0
 15 16  1  0
 16 17  1  0
 17 18  1  0
  4 19  1  0
 19 20  1  0
 20 21  1  0
 21 22  1  0
  6  1  1  0
 12  8  1  0
 18 13  1  0
 22  3  1  0
  1 23  1  0
  2 24  1  0
  5 25  1  0
  7 26  1  0
  7 27  1  0
  9 28  1  0
  9 29  1  0
 10 30  1  0
 10 31  1  0
 11 32  1  0
 11 33  1  0
 12 34  1  0
 13 35  1  0
 14 36  1  0
 14 37  1  0
 15 38  1  0
 15 39  1  0
 17 40  1  0
 17 41  1  0
 18 42  1  0
 18 43  1  0
 19 44  1  0
 19 45  1  0
 20 46  1  0
 20 47  1  0
 21 48  1  0
 22 49  1  0
 22 50  1  0
M  END
>  <Energy>  (1066) 
805.04074387025787

>  <compound_id>  (1066) 
36210

>  <target_id>  (1066) 
1

>  <reference_id>  (1066) 
146

>  <inspiration_ids>  (1066) 
[53, 146]

>  <energy_score>  (1066) 
705.3891921531658

>  <distance_score>  (1066) 
8.141541074445875

>  <path>  (1066) 
/opt/xchem-fragalysis-2/maxwin/BulkDock/SCRATCH/511022/C36210-P146/C36210-P146.minimised.mol

>  <scratch_subdir>  (1066) 
/opt/xchem-fragalysis-2/maxwin/BulkDock/SCRATCH/511022/C36210-P146

>  <fragmenstein_runtime>  (1066) 
7.53597354888916

>  <fragmenstein_outcome>  (1066) 
too moved

>  <fragmenstein_mode>  (1066) 
expansion

>  <fragmenstein_error>  (1066) 


$$$$
C66567-P53
     RDKit          3D

 43 46  0  0  0  0  0  0  0  0999 V2000
    5.9433    6.3953   16.7455 O   0  0  0  0  0  0  0  0  0  0  0  0
    5.5813    5.3979   17.3697 C   0  0  0  0  0  0  0  0  0  0  0  0
    6.5099    4.2330   17.1821 C   0  0  0  0  0  0  0  0  0  0  0  0
    7.8460    4.3989   17.5715 C   0  0  0  0  0  0  0  0  0  0  0  0
    8.8303    3.4852   17.1792 C   0  0  0  0  0  0  0  0  0  0  0  0
    8.5119    2.3883   16.3713 C   0  0  0  0  0  0  0  0  0  0  0  0
    7.1743    2.1614   16.0088 C   0  0  0  0  0  0  0  0  0  0  0  0
    6.1837    3.1070   16.3948 C   0  0  0  0  0  0  0  0  0  0  0  0
    6.8252    0.9886   15.1077 C   0  0  0  0  0  0  0  0  0  0  0  0
    7.8759   -0.0454   15.0046 N   0  0  0  0  0  0  0  0  0  0  0  0
    9.1664    0.5869   14.7165 C   0  0  0  0  0  0  0  0  0  0  0  0
    9.5924    1.4484   15.9042 C   0  0  0  0  0  0  0  0  0  0  0  0
    4.3602    5.3611   18.0771 N   0  0  0  0  0  0  0  0  0  0  0  0
    4.6955    5.8715   19.6639 C   0  0  0  0  0  0  0  0  0  0  0  0
    4.7692    7.4416   19.9293 C   0  0  0  0  0  0  0  0  0  0  0  0
    3.3482    7.2885   19.8419 C   0  0  0  0  0  0  0  0  0  0  0  0
    3.8084    5.7446   19.6777 C   0  0  0  0  0  0  0  0  0  0  0  0
    2.8727    4.8589   20.8543 C   0  0  0  0  0  0  0  0  0  0  0  0
    3.2359    5.0944   22.1451 N   0  0  0  0  0  0  0  0  0  0  0  0
    2.3556    4.7329   23.1050 C   0  0  0  0  0  0  0  0  0  0  0  0
    1.1141    4.2063   22.8453 C   0  0  0  0  0  0  0  0  0  0  0  0
    0.8225    4.0274   21.5138 C   0  0  0  0  0  0  0  0  0  0  0  0
    1.6699    4.3325   20.5058 N   0  0  0  0  0  0  0  0  0  0  0  0
    8.1404    5.2887   18.1242 H   0  0  0  0  0  0  0  0  0  0  0  0
    9.8571    3.6838   17.4673 H   0  0  0  0  0  0  0  0  0  0  0  0
    5.1622    2.9989   16.0347 H   0  0  0  0  0  0  0  0  0  0  0  0
    5.9190    0.5058   15.4906 H   0  0  0  0  0  0  0  0  0  0  0  0
    6.6010    1.3784   14.1070 H   0  0  0  0  0  0  0  0  0  0  0  0
    7.6440   -0.6491   14.2117 H   0  0  0  0  0  0  0  0  0  0  0  0
    9.9208   -0.1893   14.5476 H   0  0  0  0  0  0  0  0  0  0  0  0
    9.1042    1.1850   13.7986 H   0  0  0  0  0  0  0  0  0  0  0  0
    9.8225    0.7983   16.7499 H   0  0  0  0  0  0  0  0  0  0  0  0
   10.4908    2.0099   15.6278 H   0  0  0  0  0  0  0  0  0  0  0  0
    5.3020    5.0824   20.3866 H   0  0  0  0  0  0  0  0  0  0  0  0
    5.8230    5.9955   19.4072 H   0  0  0  0  0  0  0  0  0  0  0  0
    5.1445    7.6886   20.9261 H   0  0  0  0  0  0  0  0  0  0  0  0
    5.2273    8.0283   19.1283 H   0  0  0  0  0  0  0  0  0  0  0  0
    2.7975    7.5192   20.7567 H   0  0  0  0  0  0  0  0  0  0  0  0
    2.8982    7.7175   18.9413 H   0  0  0  0  0  0  0  0  0  0  0  0
    2.8067    5.5657   19.1120 H   0  0  0  0  0  0  0  0  0  0  0  0
    2.6842    4.9143   24.1242 H   0  0  0  0  0  0  0  0  0  0  0  0
    0.4141    3.9616   23.6310 H   0  0  0  0  0  0  0  0  0  0  0  0
   -0.1405    3.6358   21.1988 H   0  0  0  0  0  0  0  0  0  0  0  0
  1  2  2  0
  2  3  1  0
  3  4  2  0
  4  5  1  0
  5  6  2  0
  6  7  1  0
  7  8  2  0
  7  9  1  0
  9 10  1  0
 10 11  1  0
 11 12  1  0
  2 13  1  0
 13 14  1  0
 14 15  1  0
 15 16  1  0
 16 17  1  0
 17 18  1  0
 18 19  2  0
 19 20  1  0
 20 21  2  0
 21 22  1  0
 22 23  2  0
  8  3  1  0
 17 13  1  0
 23 18  1  0
 12  6  1  0
  4 24  1  0
  5 25  1  0
  8 26  1  0
  9 27  1  0
  9 28  1  0
 10 29  1  0
 11 30  1  0
 11 31  1  0
 12 32  1  0
 12 33  1  0
 14 34  1  0
 14 35  1  0
 15 36  1  0
 15 37  1  0
 16 38  1  0
 16 39  1  0
 17 40  1  0
 20 41  1  0
 21 42  1  0
 22 43  1  0
M  END
>  <Energy>  (1067) 
624.06509148067505

>  <compound_id>  (1067) 
66567

>  <target_id>  (1067) 
1

>  <reference_id>  (1067) 
53

>  <inspiration_ids>  (1067) 
[53, 146]

>  <energy_score>  (1067) 
505.0854696309982

>  <distance_score>  (1067) 
7.434482639729752

>  <path>  (1067) 
/opt/xchem-fragalysis-2/maxwin/BulkDock/SCRATCH/511022/C66567-P53/C66567-P53.minimised.mol

>  <scratch_subdir>  (1067) 
/opt/xchem-fragalysis-2/maxwin/BulkDock/SCRATCH/511022/C66567-P53

>  <fragmenstein_runtime>  (1067) 
8.158443212509155

>  <fragmenstein_outcome>  (1067) 
too moved

>  <fragmenstein_mode>  (1067) 
expansion

>  <fragmenstein_error>  (1067) 


$$$$
C66567-P146
     RDKit          3D

 43 46  0  0  0  0  0  0  0  0999 V2000
    8.7507    6.6276   21.3822 O   0  0  0  0  0  0  0  0  0  0  0  0
    7.6988    6.1285   20.9910 C   0  0  0  0  0  0  0  0  0  0  0  0
    7.8227    5.1842   19.8298 C   0  0  0  0  0  0  0  0  0  0  0  0
    6.8429    5.1443   18.8426 C   0  0  0  0  0  0  0  0  0  0  0  0
    7.0876    4.5029   17.6175 C   0  0  0  0  0  0  0  0  0  0  0  0
    8.3261    3.9143   17.3456 C   0  0  0  0  0  0  0  0  0  0  0  0
    9.3248    3.9320   18.3256 C   0  0  0  0  0  0  0  0  0  0  0  0
    9.0623    4.5586   19.5637 C   0  0  0  0  0  0  0  0  0  0  0  0
   10.7175    3.4619   17.9835 C   0  0  0  0  0  0  0  0  0  0  0  0
   10.7739    2.5778   16.8139 N   0  0  0  0  0  0  0  0  0  0  0  0
   10.0777    3.1755   15.6812 C   0  0  0  0  0  0  0  0  0  0  0  0
    8.5924    3.2760   16.0065 C   0  0  0  0  0  0  0  0  0  0  0  0
    6.4440    6.4907   21.5094 N   0  0  0  0  0  0  0  0  0  0  0  0
    6.1443    5.5095   22.7083 C   0  0  0  0  0  0  0  0  0  0  0  0
    6.7972    5.8743   24.1433 C   0  0  0  0  0  0  0  0  0  0  0  0
    5.6411    6.7156   24.2255 C   0  0  0  0  0  0  0  0  0  0  0  0
    5.3763    5.9579   22.8498 C   0  0  0  0  0  0  0  0  0  0  0  0
    3.8446    5.1714   22.8761 C   0  0  0  0  0  0  0  0  0  0  0  0
    3.6935    4.2894   23.8997 N   0  0  0  0  0  0  0  0  0  0  0  0
    2.4321    3.8892   24.1750 C   0  0  0  0  0  0  0  0  0  0  0  0
    1.3322    4.3037   23.4661 C   0  0  0  0  0  0  0  0  0  0  0  0
    1.5961    5.1628   22.4246 C   0  0  0  0  0  0  0  0  0  0  0  0
    2.8313    5.6201   22.1135 N   0  0  0  0  0  0  0  0  0  0  0  0
    5.9010    5.6711   18.9884 H   0  0  0  0  0  0  0  0  0  0  0  0
    6.3128    4.5256   16.8525 H   0  0  0  0  0  0  0  0  0  0  0  0
    9.8667    4.6576   20.2925 H   0  0  0  0  0  0  0  0  0  0  0  0
   11.3499    4.3415   17.8089 H   0  0  0  0  0  0  0  0  0  0  0  0
   11.1242    2.9318   18.8490 H   0  0  0  0  0  0  0  0  0  0  0  0
   11.7597    2.4727   16.5403 H   0  0  0  0  0  0  0  0  0  0  0  0
   10.4965    4.1629   15.4490 H   0  0  0  0  0  0  0  0  0  0  0  0
   10.2192    2.5497   14.7938 H   0  0  0  0  0  0  0  0  0  0  0  0
    8.0957    3.8549   15.2206 H   0  0  0  0  0  0  0  0  0  0  0  0
    8.1605    2.2715   16.0298 H   0  0  0  0  0  0  0  0  0  0  0  0
    7.1700    4.9653   22.6168 H   0  0  0  0  0  0  0  0  0  0  0  0
    5.9520    4.3665   22.3038 H   0  0  0  0  0  0  0  0  0  0  0  0
    6.7900    5.0317   24.8422 H   0  0  0  0  0  0  0  0  0  0  0  0
    7.7575    6.3962   24.0964 H   0  0  0  0  0  0  0  0  0  0  0  0
    4.9429    6.4841   25.0320 H   0  0  0  0  0  0  0  0  0  0  0  0
    5.8487    7.7840   24.1166 H   0  0  0  0  0  0  0  0  0  0  0  0
    4.7185    6.8595   22.5032 H   0  0  0  0  0  0  0  0  0  0  0  0
    2.3324    3.2129   25.0192 H   0  0  0  0  0  0  0  0  0  0  0  0
    0.3282    3.9823   23.7051 H   0  0  0  0  0  0  0  0  0  0  0  0
    0.7946    5.5430   21.7959 H   0  0  0  0  0  0  0  0  0  0  0  0
  1  2  2  0
  2  3  1  0
  3  4  2  0
  4  5  1  0
  5  6  2  0
  6  7  1  0
  7  8  2  0
  7  9  1  0
  9 10  1  0
 10 11  1  0
 11 12  1  0
  2 13  1  0
 13 14  1  0
 14 15  1  0
 15 16  1  0
 16 17  1  0
 17 18  1  0
 18 19  2  0
 19 20  1  0
 20 21  2  0
 21 22  1  0
 22 23  2  0
  8  3  1  0
 17 13  1  0
 23 18  1  0
 12  6  1  0
  4 24  1  0
  5 25  1  0
  8 26  1  0
  9 27  1  0
  9 28  1  0
 10 29  1  0
 11 30  1  0
 11 31  1  0
 12 32  1  0
 12 33  1  0
 14 34  1  0
 14 35  1  0
 15 36  1  0
 15 37  1  0
 16 38  1  0
 16 39  1  0
 17 40  1  0
 20 41  1  0
 21 42  1  0
 22 43  1  0
M  END
>  <Energy>  (1068) 
613.72599719995412

>  <compound_id>  (1068) 
66567

>  <target_id>  (1068) 
1

>  <reference_id>  (1068) 
146

>  <inspiration_ids>  (1068) 
[53, 146]

>  <energy_score>  (1068) 
494.74637535027694

>  <distance_score>  (1068) 
7.326970030631627

>  <path>  (1068) 
/opt/xchem-fragalysis-2/maxwin/BulkDock/SCRATCH/511022/C66567-P146/C66567-P146.minimised.mol

>  <scratch_subdir>  (1068) 
/opt/xchem-fragalysis-2/maxwin/BulkDock/SCRATCH/511022/C66567-P146

>  <fragmenstein_runtime>  (1068) 
8.013150691986084

>  <fragmenstein_outcome>  (1068) 
too moved

>  <fragmenstein_mode>  (1068) 
expansion

>  <fragmenstein_error>  (1068) 


$$$$
C13649-P53
     RDKit          3D

 42 45  0  0  0  0  0  0  0  0999 V2000
   16.1941    0.7875   22.1805 O   0  0  0  0  0  0  0  0  0  0  0  0
   15.2339    0.1528   22.2110 C   0  0  0  0  0  0  0  0  0  0  0  0
   15.0227   -0.8248   21.0688 C   0  0  0  0  0  0  0  0  0  0  0  0
   14.4084   -2.0658   21.2654 C   0  0  0  0  0  0  0  0  0  0  0  0
   14.2661   -2.9735   20.2010 C   0  0  0  0  0  0  0  0  0  0  0  0
   14.7016   -2.6425   18.9088 C   0  0  0  0  0  0  0  0  0  0  0  0
   15.4122   -1.4451   18.7191 C   0  0  0  0  0  0  0  0  0  0  0  0
   15.5679   -0.5475   19.7999 C   0  0  0  0  0  0  0  0  0  0  0  0
   15.8996   -1.0707   17.3357 C   0  0  0  0  0  0  0  0  0  0  0  0
   15.7092   -2.1834   16.2923 C   0  0  0  0  0  0  0  0  0  0  0  0
   14.4182   -2.8566   16.4494 N   0  0  0  0  0  0  0  0  0  0  0  0
   14.3943   -3.5595   17.7430 C   0  0  0  0  0  0  0  0  0  0  0  0
   14.0475   -0.0020   23.3160 N   0  0  0  0  0  0  0  0  0  0  0  0
   13.7327    0.6059   25.0870 C   0  0  0  0  0  0  0  0  0  0  0  0
   12.2196    1.0146   25.4157 C   0  0  0  0  0  0  0  0  0  0  0  0
   12.7321    2.0456   24.5706 C   0  0  0  0  0  0  0  0  0  0  0  0
   11.9006    2.4275   23.4164 C   0  0  0  0  0  0  0  0  0  0  0  0
   11.5761    3.6714   22.9181 C   0  0  0  0  0  0  0  0  0  0  0  0
   10.7216    3.4143   21.8353 C   0  0  0  0  0  0  0  0  0  0  0  0
   10.4891    2.1111   21.6801 N   0  0  0  0  0  0  0  0  0  0  0  0
   11.2832    1.5288   22.5964 N   0  0  0  0  0  0  0  0  0  0  0  0
   13.9847    0.8165   24.4328 C   0  0  0  0  0  0  0  0  0  0  0  0
   14.0187   -2.3355   22.2439 H   0  0  0  0  0  0  0  0  0  0  0  0
   13.7435   -3.9130   20.3743 H   0  0  0  0  0  0  0  0  0  0  0  0
   16.0931    0.3935   19.6446 H   0  0  0  0  0  0  0  0  0  0  0  0
   15.3471   -0.1841   17.0072 H   0  0  0  0  0  0  0  0  0  0  0  0
   16.9615   -0.8026   17.3840 H   0  0  0  0  0  0  0  0  0  0  0  0
   15.7749   -1.7478   15.2890 H   0  0  0  0  0  0  0  0  0  0  0  0
   16.5238   -2.9153   16.3694 H   0  0  0  0  0  0  0  0  0  0  0  0
   14.3013   -3.5545   15.7151 H   0  0  0  0  0  0  0  0  0  0  0  0
   15.1121   -4.3889   17.7408 H   0  0  0  0  0  0  0  0  0  0  0  0
   13.3920   -3.9841   17.8713 H   0  0  0  0  0  0  0  0  0  0  0  0
   14.5323    0.7199   26.0893 H   0  0  0  0  0  0  0  0  0  0  0  0
   13.5544   -0.5486   25.5240 H   0  0  0  0  0  0  0  0  0  0  0  0
   12.0786    1.2725   26.4669 H   0  0  0  0  0  0  0  0  0  0  0  0
   11.4903    0.3015   25.0225 H   0  0  0  0  0  0  0  0  0  0  0  0
   13.1164    2.9114   25.1335 H   0  0  0  0  0  0  0  0  0  0  0  0
   11.9080    4.6318   23.2858 H   0  0  0  0  0  0  0  0  0  0  0  0
   10.2445    4.1177   21.1651 H   0  0  0  0  0  0  0  0  0  0  0  0
   11.3655    0.5109   22.6095 H   0  0  0  0  0  0  0  0  0  0  0  0
   14.2951    1.6880   23.6373 H   0  0  0  0  0  0  0  0  0  0  0  0
   15.2676    1.1828   24.5909 H   0  0  0  0  0  0  0  0  0  0  0  0
  1  2  2  0
  2  3  1  0
  3  4  2  0
  4  5  1  0
  5  6  2  0
  6  7  1  0
  7  8  2  0
  7  9  1  0
  9 10  1  0
 10 11  1  0
 11 12  1  0
  2 13  1  0
 13 14  1  0
 14 15  1  0
 15 16  1  0
 16 17  1  0
 17 18  2  0
 18 19  1  0
 19 20  2  0
 20 21  1  0
 16 22  1  0
  8  3  1  0
 22 13  1  0
 12  6  1  0
 21 17  1  0
  4 23  1  0
  5 24  1  0
  8 25  1  0
  9 26  1  0
  9 27  1  0
 10 28  1  0
 10 29  1  0
 11 30  1  0
 12 31  1  0
 12 32  1  0
 14 33  1  0
 14 34  1  0
 15 35  1  0
 15 36  1  0
 16 37  1  0
 18 38  1  0
 19 39  1  0
 21 40  1  0
 22 41  1  0
 22 42  1  0
M  END
>  <Energy>  (1069) 
787.75949130738979

>  <compound_id>  (1069) 
13649

>  <target_id>  (1069) 
1

>  <reference_id>  (1069) 
53

>  <inspiration_ids>  (1069) 
[53, 146]

>  <energy_score>  (1069) 
689.3345084571926

>  <distance_score>  (1069) 
7.91820544024336

>  <path>  (1069) 
/opt/xchem-fragalysis-2/maxwin/BulkDock/SCRATCH/511022/C13649-P53/C13649-P53.minimised.mol

>  <scratch_subdir>  (1069) 
/opt/xchem-fragalysis-2/maxwin/BulkDock/SCRATCH/511022/C13649-P53

>  <fragmenstein_runtime>  (1069) 
5.25799036026001

>  <fragmenstein_outcome>  (1069) 
too moved

>  <fragmenstein_mode>  (1069) 
expansion

>  <fragmenstein_error>  (1069) 


$$$$
C13649-P146
     RDKit          3D

 42 45  0  0  0  0  0  0  0  0999 V2000
    4.5381    0.8400   21.4460 O   0  0  0  0  0  0  0  0  0  0  0  0
    5.4441    0.7565   22.1175 C   0  0  0  0  0  0  0  0  0  0  0  0
    7.2125    1.1806   20.9730 C   0  0  0  0  0  0  0  0  0  0  0  0
    7.6499    0.4056   19.7821 C   0  0  0  0  0  0  0  0  0  0  0  0
    8.4525    0.8091   18.6746 C   0  0  0  0  0  0  0  0  0  0  0  0
    9.0443    2.0425   18.5983 C   0  0  0  0  0  0  0  0  0  0  0  0
    8.8994    2.8656   19.6973 C   0  0  0  0  0  0  0  0  0  0  0  0
    8.0103    2.4915   20.7711 C   0  0  0  0  0  0  0  0  0  0  0  0
    9.7056    4.1448   19.7373 C   0  0  0  0  0  0  0  0  0  0  0  0
   10.3232    4.5419   18.3794 C   0  0  0  0  0  0  0  0  0  0  0  0
   10.8442    3.3893   17.6474 N   0  0  0  0  0  0  0  0  0  0  0  0
    9.7415    2.4858   17.3410 C   0  0  0  0  0  0  0  0  0  0  0  0
    5.5820    0.1649   24.0256 N   0  0  0  0  0  0  0  0  0  0  0  0
    4.7139   -0.1544   25.0054 C   0  0  0  0  0  0  0  0  0  0  0  0
    5.4608   -1.2685   26.0353 C   0  0  0  0  0  0  0  0  0  0  0  0
    4.0897   -1.3456   26.4035 C   0  0  0  0  0  0  0  0  0  0  0  0
    3.5825   -0.5313   27.5431 C   0  0  0  0  0  0  0  0  0  0  0  0
    4.2097    0.1728   28.5502 C   0  0  0  0  0  0  0  0  0  0  0  0
    3.1663    0.7121   29.3222 C   0  0  0  0  0  0  0  0  0  0  0  0
    1.9651    0.3702   28.8564 N   0  0  0  0  0  0  0  0  0  0  0  0
    2.2380   -0.3870   27.7836 N   0  0  0  0  0  0  0  0  0  0  0  0
    4.0587   -0.5735   24.9525 C   0  0  0  0  0  0  0  0  0  0  0  0
    7.2272   -0.5633   19.6163 H   0  0  0  0  0  0  0  0  0  0  0  0
    8.4843    0.1896   17.7856 H   0  0  0  0  0  0  0  0  0  0  0  0
    7.8617    3.3402   21.4527 H   0  0  0  0  0  0  0  0  0  0  0  0
    9.0771    4.9690   20.0940 H   0  0  0  0  0  0  0  0  0  0  0  0
   10.5138    3.9991   20.4653 H   0  0  0  0  0  0  0  0  0  0  0  0
    9.5731    5.0621   17.7692 H   0  0  0  0  0  0  0  0  0  0  0  0
   11.1325    5.2596   18.5549 H   0  0  0  0  0  0  0  0  0  0  0  0
   11.2892    3.6866   16.7791 H   0  0  0  0  0  0  0  0  0  0  0  0
   10.1326    1.6237   16.7937 H   0  0  0  0  0  0  0  0  0  0  0  0
    9.0128    2.9717   16.6793 H   0  0  0  0  0  0  0  0  0  0  0  0
    4.1866    1.0356   25.4421 H   0  0  0  0  0  0  0  0  0  0  0  0
    5.4726    0.4758   25.7054 H   0  0  0  0  0  0  0  0  0  0  0  0
    5.8351   -2.1500   25.5066 H   0  0  0  0  0  0  0  0  0  0  0  0
    6.1921   -0.8830   26.7551 H   0  0  0  0  0  0  0  0  0  0  0  0
    3.6736   -2.3561   26.3799 H   0  0  0  0  0  0  0  0  0  0  0  0
    5.2726    0.2883   28.7108 H   0  0  0  0  0  0  0  0  0  0  0  0
    3.2312    1.3361   30.2045 H   0  0  0  0  0  0  0  0  0  0  0  0
    1.4540   -0.7730   27.2642 H   0  0  0  0  0  0  0  0  0  0  0  0
    2.9662   -0.0869   24.8157 H   0  0  0  0  0  0  0  0  0  0  0  0
    3.9217   -1.5259   24.1821 H   0  0  0  0  0  0  0  0  0  0  0  0
  1  2  2  0
  2  3  1  0
  3  4  2  0
  4  5  1  0
  5  6  2  0
  6  7  1  0
  7  8  2  0
  7  9  1  0
  9 10  1  0
 10 11  1  0
 11 12  1  0
  2 13  1  0
 13 14  1  0
 14 15  1  0
 15 16  1  0
 16 17  1  0
 17 18  2  0
 18 19  1  0
 19 20  2  0
 20 21  1  0
 16 22  1  0
  8  3  1  0
 22 13  1  0
 12  6  1  0
 21 17  1  0
  4 23  1  0
  5 24  1  0
  8 25  1  0
  9 26  1  0
  9 27  1  0
 10 28  1  0
 10 29  1  0
 11 30  1  0
 12 31  1  0
 12 32  1  0
 14 33  1  0
 14 34  1  0
 15 35  1  0
 15 36  1  0
 16 37  1  0
 18 38  1  0
 19 39  1  0
 21 40  1  0
 22 41  1  0
 22 42  1  0
M  END
>  <Energy>  (1070) 
1069.3958048144461

>  <compound_id>  (1070) 
13649

>  <target_id>  (1070) 
1

>  <reference_id>  (1070) 
146

>  <inspiration_ids>  (1070) 
[53, 146]

>  <energy_score>  (1070) 
970.9708219642442

>  <distance_score>  (1070) 
7.300530212452329

>  <path>  (1070) 
/opt/xchem-fragalysis-2/maxwin/BulkDock/SCRATCH/511022/C13649-P146/C13649-P146.minimised.mol

>  <scratch_subdir>  (1070) 
/opt/xchem-fragalysis-2/maxwin/BulkDock/SCRATCH/511022/C13649-P146

>  <fragmenstein_runtime>  (1070) 
5.046250820159912

>  <fragmenstein_outcome>  (1070) 
too moved

>  <fragmenstein_mode>  (1070) 
expansion

>  <fragmenstein_error>  (1070) 


$$$$
C13648-P53
     RDKit          3D

 42 45  0  0  0  0  0  0  0  0999 V2000
    5.9156   -3.7359   19.7428 O   0  0  0  0  0  0  0  0  0  0  0  0
    6.7570   -3.5055   20.6707 C   0  0  0  0  0  0  0  0  0  0  0  0
    8.6872   -4.3005   20.1026 C   0  0  0  0  0  0  0  0  0  0  0  0
   10.2749   -5.1322   20.7719 C   0  0  0  0  0  0  0  0  0  0  0  0
   11.7214   -4.8341   21.3114 C   0  0  0  0  0  0  0  0  0  0  0  0
   12.6130   -5.0376   20.3325 C   0  0  0  0  0  0  0  0  0  0  0  0
   11.7998   -5.3413   19.2535 C   0  0  0  0  0  0  0  0  0  0  0  0
    9.9056   -5.4034   19.4342 C   0  0  0  0  0  0  0  0  0  0  0  0
   12.4364   -4.6073   17.8614 C   0  0  0  0  0  0  0  0  0  0  0  0
   13.3369   -3.4613   18.1136 N   0  0  0  0  0  0  0  0  0  0  0  0
   14.4499   -3.9759   18.9164 C   0  0  0  0  0  0  0  0  0  0  0  0
   13.9908   -4.4727   20.2943 C   0  0  0  0  0  0  0  0  0  0  0  0
    5.7862   -2.7916   22.2932 N   0  0  0  0  0  0  0  0  0  0  0  0
    5.3625   -1.0824   22.7757 C   0  0  0  0  0  0  0  0  0  0  0  0
    4.8177   -0.8388   24.3834 C   0  0  0  0  0  0  0  0  0  0  0  0
    4.3731   -2.2527   24.6099 C   0  0  0  0  0  0  0  0  0  0  0  0
    3.8693   -2.6775   25.9624 C   0  0  0  0  0  0  0  0  0  0  0  0
    3.4361   -1.9863   27.0766 C   0  0  0  0  0  0  0  0  0  0  0  0
    3.0639   -2.9855   27.9955 C   0  0  0  0  0  0  0  0  0  0  0  0
    3.2729   -4.2167   27.5213 N   0  0  0  0  0  0  0  0  0  0  0  0
    3.8731   -3.9999   26.3404 N   0  0  0  0  0  0  0  0  0  0  0  0
    3.8673   -2.5190   22.7759 C   0  0  0  0  0  0  0  0  0  0  0  0
   10.4447   -6.3161   20.9168 H   0  0  0  0  0  0  0  0  0  0  0  0
   11.8874   -4.0022   21.9970 H   0  0  0  0  0  0  0  0  0  0  0  0
    9.4516   -6.3389   19.1675 H   0  0  0  0  0  0  0  0  0  0  0  0
   11.6275   -4.3257   17.1848 H   0  0  0  0  0  0  0  0  0  0  0  0
   13.0628   -5.3076   17.3079 H   0  0  0  0  0  0  0  0  0  0  0  0
   13.7020   -3.1649   17.2102 H   0  0  0  0  0  0  0  0  0  0  0  0
   14.9644   -4.7848   18.3815 H   0  0  0  0  0  0  0  0  0  0  0  0
   15.1957   -3.1842   19.0519 H   0  0  0  0  0  0  0  0  0  0  0  0
   14.0358   -3.6198   20.9848 H   0  0  0  0  0  0  0  0  0  0  0  0
   14.6967   -5.2226   20.6695 H   0  0  0  0  0  0  0  0  0  0  0  0
    5.4660   -1.9416   23.3596 H   0  0  0  0  0  0  0  0  0  0  0  0
    4.9334   -0.6939   21.8822 H   0  0  0  0  0  0  0  0  0  0  0  0
    4.0572   -0.0726   24.5412 H   0  0  0  0  0  0  0  0  0  0  0  0
    5.6407   -0.6309   25.0830 H   0  0  0  0  0  0  0  0  0  0  0  0
    5.2880   -2.8916   24.7125 H   0  0  0  0  0  0  0  0  0  0  0  0
    3.3519   -0.9147   27.1913 H   0  0  0  0  0  0  0  0  0  0  0  0
    2.6363   -2.8656   28.9827 H   0  0  0  0  0  0  0  0  0  0  0  0
    4.2339   -4.7963   25.8219 H   0  0  0  0  0  0  0  0  0  0  0  0
    3.2766   -3.1998   23.4372 H   0  0  0  0  0  0  0  0  0  0  0  0
    3.0897   -3.0728   22.1931 H   0  0  0  0  0  0  0  0  0  0  0  0
  1  2  2  0
  2  3  1  0
  3  4  2  0
  4  5  1  0
  5  6  2  0
  6  7  1  0
  7  8  2  0
  7  9  1  0
  9 10  1  0
 10 11  1  0
 11 12  1  0
  2 13  1  0
 13 14  1  0
 14 15  1  0
 15 16  1  0
 16 17  1  0
 17 18  2  0
 18 19  1  0
 19 20  2  0
 20 21  1  0
 16 22  1  0
  8  3  1  0
 22 13  1  0
 12  6  1  0
 21 17  1  0
  4 23  1  0
  5 24  1  0
  8 25  1  0
  9 26  1  0
  9 27  1  0
 10 28  1  0
 11 29  1  0
 11 30  1  0
 12 31  1  0
 12 32  1  0
 14 33  1  0
 14 34  1  0
 15 35  1  0
 15 36  1  0
 16 37  1  0
 18 38  1  0
 19 39  1  0
 21 40  1  0
 22 41  1  0
 22 42  1  0
M  END
>  <Energy>  (1071) 
1451.27701823031

>  <compound_id>  (1071) 
13648

>  <target_id>  (1071) 
1

>  <reference_id>  (1071) 
53

>  <inspiration_ids>  (1071) 
[53, 146]

>  <energy_score>  (1071) 
1357.3251129173086

>  <distance_score>  (1071) 
6.7534085721515416

>  <path>  (1071) 
/opt/xchem-fragalysis-2/maxwin/BulkDock/SCRATCH/511022/C13648-P53/C13648-P53.minimised.mol

>  <scratch_subdir>  (1071) 
/opt/xchem-fragalysis-2/maxwin/BulkDock/SCRATCH/511022/C13648-P53

>  <fragmenstein_runtime>  (1071) 
3.4114816188812256

>  <fragmenstein_outcome>  (1071) 
too moved

>  <fragmenstein_mode>  (1071) 
expansion

>  <fragmenstein_error>  (1071) 


$$$$
C13648-P146
     RDKit          3D

 42 45  0  0  0  0  0  0  0  0999 V2000
   16.0193    1.7990   21.9832 O   0  0  0  0  0  0  0  0  0  0  0  0
   15.1387    0.9917   21.8204 C   0  0  0  0  0  0  0  0  0  0  0  0
   15.5045   -0.1061   20.8101 C   0  0  0  0  0  0  0  0  0  0  0  0
   16.5410    0.2344   19.9149 C   0  0  0  0  0  0  0  0  0  0  0  0
   16.8403   -0.5331   18.7888 C   0  0  0  0  0  0  0  0  0  0  0  0
   16.1154   -1.6891   18.5178 C   0  0  0  0  0  0  0  0  0  0  0  0
   15.1300   -2.1186   19.4270 C   0  0  0  0  0  0  0  0  0  0  0  0
   14.8228   -1.3107   20.5655 C   0  0  0  0  0  0  0  0  0  0  0  0
   14.3527   -3.3893   19.1199 C   0  0  0  0  0  0  0  0  0  0  0  0
   15.0011   -4.2767   18.1471 N   0  0  0  0  0  0  0  0  0  0  0  0
   15.3747   -3.5260   16.9494 C   0  0  0  0  0  0  0  0  0  0  0  0
   16.4471   -2.4915   17.2840 C   0  0  0  0  0  0  0  0  0  0  0  0
   13.8065    0.9580   22.3350 N   0  0  0  0  0  0  0  0  0  0  0  0
   13.7665    0.1980   23.6607 C   0  0  0  0  0  0  0  0  0  0  0  0
   12.4446    0.2795   24.4456 C   0  0  0  0  0  0  0  0  0  0  0  0
   11.7672    1.3980   23.7299 C   0  0  0  0  0  0  0  0  0  0  0  0
   10.9694    2.3260   24.5841 C   0  0  0  0  0  0  0  0  0  0  0  0
   10.3324    2.1517   25.7960 C   0  0  0  0  0  0  0  0  0  0  0  0
    9.7153    3.3853   26.0652 C   0  0  0  0  0  0  0  0  0  0  0  0
    9.9240    4.2757   25.0948 N   0  0  0  0  0  0  0  0  0  0  0  0
   10.6845    3.6143   24.2099 N   0  0  0  0  0  0  0  0  0  0  0  0
   13.0453    1.9616   23.1445 C   0  0  0  0  0  0  0  0  0  0  0  0
   17.1077    1.1538   20.0608 H   0  0  0  0  0  0  0  0  0  0  0  0
   17.6326   -0.2066   18.1186 H   0  0  0  0  0  0  0  0  0  0  0  0
   14.0324   -1.6193   21.2424 H   0  0  0  0  0  0  0  0  0  0  0  0
   14.1953   -3.9487   20.0483 H   0  0  0  0  0  0  0  0  0  0  0  0
   13.3771   -3.1255   18.7071 H   0  0  0  0  0  0  0  0  0  0  0  0
   14.3550   -5.0230   17.8957 H   0  0  0  0  0  0  0  0  0  0  0  0
   15.7763   -4.2181   16.2028 H   0  0  0  0  0  0  0  0  0  0  0  0
   14.4922   -3.0467   16.5071 H   0  0  0  0  0  0  0  0  0  0  0  0
   16.5731   -1.8213   16.4253 H   0  0  0  0  0  0  0  0  0  0  0  0
   17.4045   -2.9998   17.4566 H   0  0  0  0  0  0  0  0  0  0  0  0
   13.9880   -0.8524   23.4348 H   0  0  0  0  0  0  0  0  0  0  0  0
   14.6149    0.5216   24.2885 H   0  0  0  0  0  0  0  0  0  0  0  0
   12.6645    0.4873   25.4999 H   0  0  0  0  0  0  0  0  0  0  0  0
   11.8700   -0.6491   24.4233 H   0  0  0  0  0  0  0  0  0  0  0  0
   11.1277    1.0144   22.9263 H   0  0  0  0  0  0  0  0  0  0  0  0
   10.3101    1.2573   26.4032 H   0  0  0  0  0  0  0  0  0  0  0  0
    9.1179    3.6694   26.9222 H   0  0  0  0  0  0  0  0  0  0  0  0
   10.9677    4.1057   23.3681 H   0  0  0  0  0  0  0  0  0  0  0  0
   13.7014    2.4909   23.8593 H   0  0  0  0  0  0  0  0  0  0  0  0
   12.7876    2.7433   22.4155 H   0  0  0  0  0  0  0  0  0  0  0  0
  1  2  2  0
  2  3  1  0
  3  4  2  0
  4  5  1  0
  5  6  2  0
  6  7  1  0
  7  8  2  0
  7  9  1  0
  9 10  1  0
 10 11  1  0
 11 12  1  0
  2 13  1  0
 13 14  1  0
 14 15  1  0
 15 16  1  0
 16 17  1  0
 17 18  2  0
 18 19  1  0
 19 20  2  0
 20 21  1  0
 16 22  1  0
  8  3  1  0
 22 13  1  0
 12  6  1  0
 21 17  1  0
  4 23  1  0
  5 24  1  0
  8 25  1  0
  9 26  1  0
  9 27  1  0
 10 28  1  0
 11 29  1  0
 11 30  1  0
 12 31  1  0
 12 32  1  0
 14 33  1  0
 14 34  1  0
 15 35  1  0
 15 36  1  0
 16 37  1  0
 18 38  1  0
 19 39  1  0
 21 40  1  0
 22 41  1  0
 22 42  1  0
M  END
>  <Energy>  (1072) 
125.10145939782339

>  <compound_id>  (1072) 
13648

>  <target_id>  (1072) 
1

>  <reference_id>  (1072) 
146

>  <inspiration_ids>  (1072) 
[53, 146]

>  <energy_score>  (1072) 
31.14955408482183

>  <distance_score>  (1072) 
7.999627294133126

>  <path>  (1072) 
/opt/xchem-fragalysis-2/maxwin/BulkDock/SCRATCH/511022/C13648-P146/C13648-P146.minimised.mol

>  <scratch_subdir>  (1072) 
/opt/xchem-fragalysis-2/maxwin/BulkDock/SCRATCH/511022/C13648-P146

>  <fragmenstein_runtime>  (1072) 
4.744037389755249

>  <fragmenstein_outcome>  (1072) 
too moved

>  <fragmenstein_mode>  (1072) 
expansion

>  <fragmenstein_error>  (1072) 


$$$$
C66572-P53
     RDKit          3D

 45 48  0  0  0  0  0  0  0  0999 V2000
   16.9818   -1.6095   21.0188 O   0  0  0  0  0  0  0  0  0  0  0  0
   16.0446   -1.0111   20.5594 C   0  0  0  0  0  0  0  0  0  0  0  0
   15.3480   -1.7016   19.4369 C   0  0  0  0  0  0  0  0  0  0  0  0
   14.6354   -2.8720   19.6920 C   0  0  0  0  0  0  0  0  0  0  0  0
   14.0121   -3.5511   18.6390 C   0  0  0  0  0  0  0  0  0  0  0  0
   14.1047   -3.0894   17.3121 C   0  0  0  0  0  0  0  0  0  0  0  0
   14.8947   -1.9551   17.0391 C   0  0  0  0  0  0  0  0  0  0  0  0
   15.5172   -1.2714   18.1120 C   0  0  0  0  0  0  0  0  0  0  0  0
   15.1082   -1.4795   15.6198 C   0  0  0  0  0  0  0  0  0  0  0  0
   13.8290   -1.0996   14.8716 C   0  0  0  0  0  0  0  0  0  0  0  0
   12.9655   -2.2793   14.4260 C   0  0  0  0  0  0  0  0  0  0  0  0
   12.3766   -3.0398   15.5265 N   0  0  0  0  0  0  0  0  0  0  0  0
   13.3823   -3.8526   16.2242 C   0  0  0  0  0  0  0  0  0  0  0  0
   15.5443    0.2983   20.8495 N   0  0  0  0  0  0  0  0  0  0  0  0
   16.0857    1.3718   21.7259 C   0  0  0  0  0  0  0  0  0  0  0  0
   15.0793    2.4449   22.0339 C   0  0  0  0  0  0  0  0  0  0  0  0
   14.0594    1.5576   22.6494 C   0  0  0  0  0  0  0  0  0  0  0  0
   12.6655    2.0591   22.5061 C   0  0  0  0  0  0  0  0  0  0  0  0
   12.1563    3.2653   22.0698 C   0  0  0  0  0  0  0  0  0  0  0  0
   10.7718    3.1613   22.2521 C   0  0  0  0  0  0  0  0  0  0  0  0
   10.4188    1.9861   22.7727 N   0  0  0  0  0  0  0  0  0  0  0  0
   11.5801    1.3269   22.9047 N   0  0  0  0  0  0  0  0  0  0  0  0
   14.4831    0.2303   21.9736 C   0  0  0  0  0  0  0  0  0  0  0  0
   14.5550   -3.2561   20.7053 H   0  0  0  0  0  0  0  0  0  0  0  0
   13.4385   -4.4505   18.8623 H   0  0  0  0  0  0  0  0  0  0  0  0
   16.1318   -0.3949   17.9191 H   0  0  0  0  0  0  0  0  0  0  0  0
   15.7585   -0.5953   15.6357 H   0  0  0  0  0  0  0  0  0  0  0  0
   15.6626   -2.2482   15.0668 H   0  0  0  0  0  0  0  0  0  0  0  0
   13.2267   -0.4106   15.4722 H   0  0  0  0  0  0  0  0  0  0  0  0
   14.1188   -0.5466   13.9688 H   0  0  0  0  0  0  0  0  0  0  0  0
   13.5290   -2.9368   13.7524 H   0  0  0  0  0  0  0  0  0  0  0  0
   12.1381   -1.8756   13.8294 H   0  0  0  0  0  0  0  0  0  0  0  0
   11.7002   -3.6969   15.1306 H   0  0  0  0  0  0  0  0  0  0  0  0
   14.1032   -4.3110   15.5355 H   0  0  0  0  0  0  0  0  0  0  0  0
   12.8438   -4.6898   16.6812 H   0  0  0  0  0  0  0  0  0  0  0  0
   16.9059    1.8157   21.1459 H   0  0  0  0  0  0  0  0  0  0  0  0
   16.5894    0.9464   22.6114 H   0  0  0  0  0  0  0  0  0  0  0  0
   14.7496    2.9298   21.1077 H   0  0  0  0  0  0  0  0  0  0  0  0
   15.4645    3.2061   22.7184 H   0  0  0  0  0  0  0  0  0  0  0  0
   14.2548    1.4595   23.7274 H   0  0  0  0  0  0  0  0  0  0  0  0
   12.7037    4.1136   21.6838 H   0  0  0  0  0  0  0  0  0  0  0  0
   10.0091    3.8969   22.0325 H   0  0  0  0  0  0  0  0  0  0  0  0
   11.5538    0.3552   23.2134 H   0  0  0  0  0  0  0  0  0  0  0  0
   14.8389   -0.4827   22.7379 H   0  0  0  0  0  0  0  0  0  0  0  0
   13.6267   -0.2725   21.5189 H   0  0  0  0  0  0  0  0  0  0  0  0
  1  2  2  0
  2  3  1  0
  3  4  2  0
  4  5  1  0
  5  6  2  0
  6  7  1  0
  7  8  2  0
  7  9  1  0
  9 10  1  0
 10 11  1  0
 11 12  1  0
 12 13  1  0
  2 14  1  0
 14 15  1  0
 15 16  1  0
 16 17  1  0
 17 18  1  0
 18 19  2  0
 19 20  1  0
 20 21  2  0
 21 22  1  0
 17 23  1  0
  8  3  1  0
 23 14  1  0
 13  6  1  0
 22 18  1  0
  4 24  1  0
  5 25  1  0
  8 26  1  0
  9 27  1  0
  9 28  1  0
 10 29  1  0
 10 30  1  0
 11 31  1  0
 11 32  1  0
 12 33  1  0
 13 34  1  0
 13 35  1  0
 15 36  1  0
 15 37  1  0
 16 38  1  0
 16 39  1  0
 17 40  1  0
 19 41  1  0
 20 42  1  0
 22 43  1  0
 23 44  1  0
 23 45  1  0
M  END
>  <Energy>  (1073) 
116.28593569011338

>  <compound_id>  (1073) 
66572

>  <target_id>  (1073) 
1

>  <reference_id>  (1073) 
53

>  <inspiration_ids>  (1073) 
[53, 146]

>  <energy_score>  (1073) 
20.217345933637517

>  <distance_score>  (1073) 
8.797271498578104

>  <path>  (1073) 
/opt/xchem-fragalysis-2/maxwin/BulkDock/SCRATCH/511022/C66572-P53/C66572-P53.minimised.mol

>  <scratch_subdir>  (1073) 
/opt/xchem-fragalysis-2/maxwin/BulkDock/SCRATCH/511022/C66572-P53

>  <fragmenstein_runtime>  (1073) 
4.02685809135437

>  <fragmenstein_outcome>  (1073) 
too moved

>  <fragmenstein_mode>  (1073) 
expansion

>  <fragmenstein_error>  (1073) 


$$$$
C66572-P146
     RDKit          3D

 45 48  0  0  0  0  0  0  0  0999 V2000
   16.4767    0.7545   22.6385 O   0  0  0  0  0  0  0  0  0  0  0  0
   15.3878    0.2728   22.4626 C   0  0  0  0  0  0  0  0  0  0  0  0
   15.2587   -0.6335   21.2601 C   0  0  0  0  0  0  0  0  0  0  0  0
   14.6486   -1.8816   21.3590 C   0  0  0  0  0  0  0  0  0  0  0  0
   14.5796   -2.7287   20.2410 C   0  0  0  0  0  0  0  0  0  0  0  0
   15.0716   -2.3376   18.9770 C   0  0  0  0  0  0  0  0  0  0  0  0
   15.7610   -1.1108   18.8833 C   0  0  0  0  0  0  0  0  0  0  0  0
   15.8533   -0.2848   20.0374 C   0  0  0  0  0  0  0  0  0  0  0  0
   16.3574   -0.5581   17.6024 C   0  0  0  0  0  0  0  0  0  0  0  0
   16.6658   -1.5513   16.4887 C   0  0  0  0  0  0  0  0  0  0  0  0
   15.4240   -2.0678   15.7668 C   0  0  0  0  0  0  0  0  0  0  0  0
   14.3400   -2.5601   16.6122 N   0  0  0  0  0  0  0  0  0  0  0  0
   14.8144   -3.2657   17.8023 C   0  0  0  0  0  0  0  0  0  0  0  0
   14.2025    0.3381   23.2618 N   0  0  0  0  0  0  0  0  0  0  0  0
   13.9672    0.9300   24.6187 C   0  0  0  0  0  0  0  0  0  0  0  0
   12.4857    1.1167   24.9265 C   0  0  0  0  0  0  0  0  0  0  0  0
   11.9991    1.5231   23.5719 C   0  0  0  0  0  0  0  0  0  0  0  0
   11.2493    2.8100   23.4761 C   0  0  0  0  0  0  0  0  0  0  0  0
   10.9868    3.8382   24.3564 C   0  0  0  0  0  0  0  0  0  0  0  0
   10.1892    4.7435   23.6316 C   0  0  0  0  0  0  0  0  0  0  0  0
    9.9552    4.3256   22.3863 N   0  0  0  0  0  0  0  0  0  0  0  0
   10.6293    3.1713   22.3078 N   0  0  0  0  0  0  0  0  0  0  0  0
   13.3515    1.5218   22.8491 C   0  0  0  0  0  0  0  0  0  0  0  0
   14.2239   -2.2082   22.3063 H   0  0  0  0  0  0  0  0  0  0  0  0
   14.0781   -3.6895   20.3594 H   0  0  0  0  0  0  0  0  0  0  0  0
   16.3841    0.6647   19.9756 H   0  0  0  0  0  0  0  0  0  0  0  0
   15.6990    0.2276   17.2170 H   0  0  0  0  0  0  0  0  0  0  0  0
   17.3072   -0.0725   17.8647 H   0  0  0  0  0  0  0  0  0  0  0  0
   17.2996   -1.0530   15.7438 H   0  0  0  0  0  0  0  0  0  0  0  0
   17.2621   -2.3848   16.8800 H   0  0  0  0  0  0  0  0  0  0  0  0
   15.7420   -2.8657   15.0863 H   0  0  0  0  0  0  0  0  0  0  0  0
   15.0162   -1.2701   15.1351 H   0  0  0  0  0  0  0  0  0  0  0  0
   13.7549   -3.1879   16.0634 H   0  0  0  0  0  0  0  0  0  0  0  0
   15.6901   -3.8953   17.6042 H   0  0  0  0  0  0  0  0  0  0  0  0
   14.0120   -3.9594   18.0857 H   0  0  0  0  0  0  0  0  0  0  0  0
   14.5784    1.8341   24.7800 H   0  0  0  0  0  0  0  0  0  0  0  0
   14.3874    0.2022   25.3257 H   0  0  0  0  0  0  0  0  0  0  0  0
   12.3357    1.8330   25.7378 H   0  0  0  0  0  0  0  0  0  0  0  0
   12.0340    0.1636   25.2260 H   0  0  0  0  0  0  0  0  0  0  0  0
   11.3594    0.7294   23.1725 H   0  0  0  0  0  0  0  0  0  0  0  0
   11.3114    3.9314   25.3834 H   0  0  0  0  0  0  0  0  0  0  0  0
    9.7657    5.6841   23.9616 H   0  0  0  0  0  0  0  0  0  0  0  0
   10.6179    2.6722   21.4252 H   0  0  0  0  0  0  0  0  0  0  0  0
   13.9103    2.4729   22.9364 H   0  0  0  0  0  0  0  0  0  0  0  0
   13.1932    1.4481   21.7736 H   0  0  0  0  0  0  0  0  0  0  0  0
  1  2  2  0
  2  3  1  0
  3  4  2  0
  4  5  1  0
  5  6  2  0
  6  7  1  0
  7  8  2  0
  7  9  1  0
  9 10  1  0
 10 11  1  0
 11 12  1  0
 12 13  1  0
  2 14  1  0
 14 15  1  0
 15 16  1  0
 16 17  1  0
 17 18  1  0
 18 19  2  0
 19 20  1  0
 20 21  2  0
 21 22  1  0
 17 23  1  0
  8  3  1  0
 23 14  1  0
 13  6  1  0
 22 18  1  0
  4 24  1  0
  5 25  1  0
  8 26  1  0
  9 27  1  0
  9 28  1  0
 10 29  1  0
 10 30  1  0
 11 31  1  0
 11 32  1  0
 12 33  1  0
 13 34  1  0
 13 35  1  0
 15 36  1  0
 15 37  1  0
 16 38  1  0
 16 39  1  0
 17 40  1  0
 19 41  1  0
 20 42  1  0
 22 43  1  0
 23 44  1  0
 23 45  1  0
M  END
>  <Energy>  (1074) 
111.25602197690935

>  <compound_id>  (1074) 
66572

>  <target_id>  (1074) 
1

>  <reference_id>  (1074) 
146

>  <inspiration_ids>  (1074) 
[53, 146]

>  <energy_score>  (1074) 
15.187432220435142

>  <distance_score>  (1074) 
7.9439385831294995

>  <path>  (1074) 
/opt/xchem-fragalysis-2/maxwin/BulkDock/SCRATCH/511022/C66572-P146/C66572-P146.minimised.mol

>  <scratch_subdir>  (1074) 
/opt/xchem-fragalysis-2/maxwin/BulkDock/SCRATCH/511022/C66572-P146

>  <fragmenstein_runtime>  (1074) 
4.122643709182739

>  <fragmenstein_outcome>  (1074) 
too moved

>  <fragmenstein_mode>  (1074) 
expansion

>  <fragmenstein_error>  (1074) 


$$$$
C66576-P53
     RDKit          3D

 49 51  0  0  0  0  0  0  0  0999 V2000
    0.3043    4.1694   22.8009 C   0  0  0  0  0  0  0  0  0  0  0  0
    1.3845    4.1317   23.8764 C   0  0  0  0  0  0  0  0  0  0  0  0
    2.6498    4.7146   23.4242 N   0  0  0  0  0  0  0  0  0  0  0  0
    3.4896    5.1088   24.5510 C   0  0  0  0  0  0  0  0  0  0  0  0
    3.3843    3.9333   22.3951 C   0  0  0  0  0  0  0  0  0  0  0  0
    3.9068    2.5048   22.8383 C   0  0  0  0  0  0  0  0  0  0  0  0
    3.2711    1.5082   22.1530 C   0  0  0  0  0  0  0  0  0  0  0  0
    4.8660    0.1821   22.1728 C   0  0  0  0  0  0  0  0  0  0  0  0
    5.5101   -0.4686   21.1240 N   0  0  0  0  0  0  0  0  0  0  0  0
    6.7987    0.0356   19.8249 C   0  0  0  0  0  0  0  0  0  0  0  0
    7.9882   -0.1031   20.1219 O   0  0  0  0  0  0  0  0  0  0  0  0
    6.6785    0.5324   18.1962 C   0  0  0  0  0  0  0  0  0  0  0  0
    5.8539    0.1034   17.1401 C   0  0  0  0  0  0  0  0  0  0  0  0
    6.2367    0.2211   15.7885 C   0  0  0  0  0  0  0  0  0  0  0  0
    7.4642    0.7659   15.4281 C   0  0  0  0  0  0  0  0  0  0  0  0
    8.2625    1.3235   16.4226 C   0  0  0  0  0  0  0  0  0  0  0  0
    7.8730    1.1900   17.7775 C   0  0  0  0  0  0  0  0  0  0  0  0
    9.5757    1.9719   16.0604 C   0  0  0  0  0  0  0  0  0  0  0  0
    9.7790    2.2229   14.6292 N   0  0  0  0  0  0  0  0  0  0  0  0
    9.4140    1.0397   13.8504 C   0  0  0  0  0  0  0  0  0  0  0  0
    7.9099    0.7847   13.9864 C   0  0  0  0  0  0  0  0  0  0  0  0
    5.0869    1.0627   22.2122 C   0  0  0  0  0  0  0  0  0  0  0  0
    0.1307    5.1943   22.4557 H   0  0  0  0  0  0  0  0  0  0  0  0
    0.5580    3.5557   21.9328 H   0  0  0  0  0  0  0  0  0  0  0  0
   -0.6388    3.7901   23.2082 H   0  0  0  0  0  0  0  0  0  0  0  0
    0.9966    4.7156   24.7215 H   0  0  0  0  0  0  0  0  0  0  0  0
    1.5176    3.1110   24.2485 H   0  0  0  0  0  0  0  0  0  0  0  0
    2.9775    5.8600   25.1630 H   0  0  0  0  0  0  0  0  0  0  0  0
    3.7490    4.2680   25.2022 H   0  0  0  0  0  0  0  0  0  0  0  0
    4.4158    5.5792   24.2031 H   0  0  0  0  0  0  0  0  0  0  0  0
    2.7108    3.8683   21.5321 H   0  0  0  0  0  0  0  0  0  0  0  0
    4.2034    4.5828   22.0662 H   0  0  0  0  0  0  0  0  0  0  0  0
    3.8214    2.4561   23.9478 H   0  0  0  0  0  0  0  0  0  0  0  0
    2.6180    1.4488   23.0388 H   0  0  0  0  0  0  0  0  0  0  0  0
    2.7328    1.6952   21.2145 H   0  0  0  0  0  0  0  0  0  0  0  0
    4.6939   -0.9712   22.2263 H   0  0  0  0  0  0  0  0  0  0  0  0
    5.0178   -0.4516   23.3017 H   0  0  0  0  0  0  0  0  0  0  0  0
    4.9380   -0.4541   17.2959 H   0  0  0  0  0  0  0  0  0  0  0  0
    5.5797   -0.1867   15.0214 H   0  0  0  0  0  0  0  0  0  0  0  0
    8.5536    1.5683   18.5411 H   0  0  0  0  0  0  0  0  0  0  0  0
   10.3610    1.2999   16.3934 H   0  0  0  0  0  0  0  0  0  0  0  0
    9.6617    2.9257   16.5900 H   0  0  0  0  0  0  0  0  0  0  0  0
   10.7588    2.4503   14.4746 H   0  0  0  0  0  0  0  0  0  0  0  0
    9.6597    1.2149   12.7982 H   0  0  0  0  0  0  0  0  0  0  0  0
    9.9945    0.1694   14.1819 H   0  0  0  0  0  0  0  0  0  0  0  0
    7.3520    1.5719   13.4637 H   0  0  0  0  0  0  0  0  0  0  0  0
    7.6591   -0.1713   13.5149 H   0  0  0  0  0  0  0  0  0  0  0  0
    4.6205    1.0156   23.5674 H   0  0  0  0  0  0  0  0  0  0  0  0
    4.5134    1.0873   20.9619 H   0  0  0  0  0  0  0  0  0  0  0  0
  1  2  1  0
  2  3  1  0
  3  4  1  0
  3  5  1  0
  5  6  1  0
  6  7  1  0
  7  8  1  0
  8  9  1  0
  9 10  1  0
 10 11  2  0
 10 12  1  0
 12 13  2  0
 13 14  1  0
 14 15  2  0
 15 16  1  0
 16 17  2  0
 16 18  1  0
 18 19  1  0
 19 20  1  0
 20 21  1  0
  9 22  1  0
 22  6  1  0
 17 12  1  0
 21 15  1  0
  1 23  1  0
  1 24  1  0
  1 25  1  0
  2 26  1  0
  2 27  1  0
  4 28  1  0
  4 29  1  0
  4 30  1  0
  5 31  1  0
  5 32  1  0
  6 33  1  0
  7 34  1  0
  7 35  1  0
  8 36  1  0
  8 37  1  0
 13 38  1  0
 14 39  1  0
 17 40  1  0
 18 41  1  0
 18 42  1  0
 19 43  1  0
 20 44  1  0
 20 45  1  0
 21 46  1  0
 21 47  1  0
 22 48  1  0
 22 49  1  0
M  END
>  <Energy>  (1075) 
1164.8941156409701

>  <compound_id>  (1075) 
66576

>  <target_id>  (1075) 
1

>  <reference_id>  (1075) 
53

>  <inspiration_ids>  (1075) 
[53, 146]

>  <energy_score>  (1075) 
1063.9849121478537

>  <distance_score>  (1075) 
6.810222644234659

>  <path>  (1075) 
/opt/xchem-fragalysis-2/maxwin/BulkDock/SCRATCH/511022/C66576-P53/C66576-P53.minimised.mol

>  <scratch_subdir>  (1075) 
/opt/xchem-fragalysis-2/maxwin/BulkDock/SCRATCH/511022/C66576-P53

>  <fragmenstein_runtime>  (1075) 
6.656936168670654

>  <fragmenstein_outcome>  (1075) 
too moved

>  <fragmenstein_mode>  (1075) 
expansion

>  <fragmenstein_error>  (1075) 


$$$$
C66576-P146
     RDKit          3D

 49 51  0  0  0  0  0  0  0  0999 V2000
   11.9823    5.5919   20.2022 C   0  0  0  0  0  0  0  0  0  0  0  0
   12.1714    5.3575   21.6978 C   0  0  0  0  0  0  0  0  0  0  0  0
   11.1957    4.4053   22.2625 N   0  0  0  0  0  0  0  0  0  0  0  0
    9.8350    4.9495   22.2217 C   0  0  0  0  0  0  0  0  0  0  0  0
   11.5734    4.0613   23.6488 C   0  0  0  0  0  0  0  0  0  0  0  0
   11.1737    2.6265   23.9457 C   0  0  0  0  0  0  0  0  0  0  0  0
   11.6898    2.0503   25.1510 C   0  0  0  0  0  0  0  0  0  0  0  0
   12.2751    0.9738   24.0840 C   0  0  0  0  0  0  0  0  0  0  0  0
   13.7108    0.9648   23.8668 N   0  0  0  0  0  0  0  0  0  0  0  0
   14.5927    1.4581   22.9153 C   0  0  0  0  0  0  0  0  0  0  0  0
   15.1058    2.5699   22.9782 O   0  0  0  0  0  0  0  0  0  0  0  0
   15.0389    0.5335   21.7890 C   0  0  0  0  0  0  0  0  0  0  0  0
   15.9660    1.0504   20.8664 C   0  0  0  0  0  0  0  0  0  0  0  0
   16.3637    0.3308   19.7306 C   0  0  0  0  0  0  0  0  0  0  0  0
   15.8641   -0.9499   19.4971 C   0  0  0  0  0  0  0  0  0  0  0  0
   15.0230   -1.5415   20.4578 C   0  0  0  0  0  0  0  0  0  0  0  0
   14.6254   -0.7967   21.6042 C   0  0  0  0  0  0  0  0  0  0  0  0
   14.6372   -2.9977   20.2882 C   0  0  0  0  0  0  0  0  0  0  0  0
   14.5367   -3.4095   18.8784 N   0  0  0  0  0  0  0  0  0  0  0  0
   15.8063   -3.1371   18.1976 C   0  0  0  0  0  0  0  0  0  0  0  0
   16.1650   -1.6472   18.1901 C   0  0  0  0  0  0  0  0  0  0  0  0
   12.0106    1.4246   23.3114 C   0  0  0  0  0  0  0  0  0  0  0  0
   12.8158    6.1847   19.8108 H   0  0  0  0  0  0  0  0  0  0  0  0
   11.9599    4.6442   19.6537 H   0  0  0  0  0  0  0  0  0  0  0  0
   11.0613    6.1414   19.9872 H   0  0  0  0  0  0  0  0  0  0  0  0
   12.1446    6.3152   22.2325 H   0  0  0  0  0  0  0  0  0  0  0  0
   13.1823    4.9480   21.8197 H   0  0  0  0  0  0  0  0  0  0  0  0
    9.7614    5.9166   22.7318 H   0  0  0  0  0  0  0  0  0  0  0  0
    9.4898    5.0718   21.1904 H   0  0  0  0  0  0  0  0  0  0  0  0
    9.1253    4.2635   22.6927 H   0  0  0  0  0  0  0  0  0  0  0  0
   11.1281    4.7523   24.3758 H   0  0  0  0  0  0  0  0  0  0  0  0
   12.6604    4.1439   23.7819 H   0  0  0  0  0  0  0  0  0  0  0  0
   10.0994    2.4574   23.8205 H   0  0  0  0  0  0  0  0  0  0  0  0
   10.9276    1.6250   25.8113 H   0  0  0  0  0  0  0  0  0  0  0  0
   12.4705    2.6028   25.6829 H   0  0  0  0  0  0  0  0  0  0  0  0
   12.6045    0.4402   25.0653 H   0  0  0  0  0  0  0  0  0  0  0  0
   11.7303   -0.1364   24.1116 H   0  0  0  0  0  0  0  0  0  0  0  0
   16.3596    2.0563   21.0069 H   0  0  0  0  0  0  0  0  0  0  0  0
   17.0389    0.7984   19.0172 H   0  0  0  0  0  0  0  0  0  0  0  0
   13.9949   -1.2632   22.3571 H   0  0  0  0  0  0  0  0  0  0  0  0
   13.6836   -3.2035   20.7839 H   0  0  0  0  0  0  0  0  0  0  0  0
   15.3847   -3.6169   20.8005 H   0  0  0  0  0  0  0  0  0  0  0  0
   13.7917   -2.8831   18.4300 H   0  0  0  0  0  0  0  0  0  0  0  0
   16.6062   -3.7109   18.6832 H   0  0  0  0  0  0  0  0  0  0  0  0
   15.7510   -3.5044   17.1667 H   0  0  0  0  0  0  0  0  0  0  0  0
   17.2277   -1.5368   17.9447 H   0  0  0  0  0  0  0  0  0  0  0  0
   15.5861   -1.1446   17.4049 H   0  0  0  0  0  0  0  0  0  0  0  0
   11.4611    0.7876   22.4663 H   0  0  0  0  0  0  0  0  0  0  0  0
   12.4041    2.0482   22.4136 H   0  0  0  0  0  0  0  0  0  0  0  0
  1  2  1  0
  2  3  1  0
  3  4  1  0
  3  5  1  0
  5  6  1  0
  6  7  1  0
  7  8  1  0
  8  9  1  0
  9 10  1  0
 10 11  2  0
 10 12  1  0
 12 13  2  0
 13 14  1  0
 14 15  2  0
 15 16  1  0
 16 17  2  0
 16 18  1  0
 18 19  1  0
 19 20  1  0
 20 21  1  0
  9 22  1  0
 22  6  1  0
 17 12  1  0
 21 15  1  0
  1 23  1  0
  1 24  1  0
  1 25  1  0
  2 26  1  0
  2 27  1  0
  4 28  1  0
  4 29  1  0
  4 30  1  0
  5 31  1  0
  5 32  1  0
  6 33  1  0
  7 34  1  0
  7 35  1  0
  8 36  1  0
  8 37  1  0
 13 38  1  0
 14 39  1  0
 17 40  1  0
 18 41  1  0
 18 42  1  0
 19 43  1  0
 20 44  1  0
 20 45  1  0
 21 46  1  0
 21 47  1  0
 22 48  1  0
 22 49  1  0
M  END
>  <Energy>  (1076) 
585.01082481432275

>  <compound_id>  (1076) 
66576

>  <target_id>  (1076) 
1

>  <reference_id>  (1076) 
146

>  <inspiration_ids>  (1076) 
[53, 146]

>  <energy_score>  (1076) 
484.1016213212074

>  <distance_score>  (1076) 
8.226568818718963

>  <path>  (1076) 
/opt/xchem-fragalysis-2/maxwin/BulkDock/SCRATCH/511022/C66576-P146/C66576-P146.minimised.mol

>  <scratch_subdir>  (1076) 
/opt/xchem-fragalysis-2/maxwin/BulkDock/SCRATCH/511022/C66576-P146

>  <fragmenstein_runtime>  (1076) 
7.679407358169556

>  <fragmenstein_outcome>  (1076) 
too moved

>  <fragmenstein_mode>  (1076) 
expansion

>  <fragmenstein_error>  (1076) 


$$$$
C66577-P53
     RDKit          3D

 52 54  0  0  0  0  0  0  0  0999 V2000
   10.5878    7.1007   22.7709 C   0  0  0  0  0  0  0  0  0  0  0  0
   10.5965    5.5889   22.5607 C   0  0  0  0  0  0  0  0  0  0  0  0
   10.6302    4.8218   23.8204 N   0  0  0  0  0  0  0  0  0  0  0  0
    9.4407    5.0725   24.6334 C   0  0  0  0  0  0  0  0  0  0  0  0
   10.8235    3.3778   23.5815 C   0  0  0  0  0  0  0  0  0  0  0  0
   12.2694    3.0578   23.1503 C   0  0  0  0  0  0  0  0  0  0  0  0
   13.3097    3.4918   24.1304 C   0  0  0  0  0  0  0  0  0  0  0  0
   14.0275    2.1747   24.3542 C   0  0  0  0  0  0  0  0  0  0  0  0
   14.1509    1.3122   23.1362 N   0  0  0  0  0  0  0  0  0  0  0  0
   14.7494    1.5740   21.8591 C   0  0  0  0  0  0  0  0  0  0  0  0
   15.2263    2.5862   21.4118 O   0  0  0  0  0  0  0  0  0  0  0  0
   14.8932    0.3384   20.9659 C   0  0  0  0  0  0  0  0  0  0  0  0
   14.4915   -0.9393   21.3559 C   0  0  0  0  0  0  0  0  0  0  0  0
   14.6492   -2.0386   20.4916 C   0  0  0  0  0  0  0  0  0  0  0  0
   15.2161   -1.9036   19.2092 C   0  0  0  0  0  0  0  0  0  0  0  0
   15.6856   -0.6383   18.8179 C   0  0  0  0  0  0  0  0  0  0  0  0
   15.5164    0.4611   19.7025 C   0  0  0  0  0  0  0  0  0  0  0  0
   16.3888   -0.4268   17.4932 C   0  0  0  0  0  0  0  0  0  0  0  0
   15.5863   -0.8102   16.2471 C   0  0  0  0  0  0  0  0  0  0  0  0
   15.4441   -2.3111   16.0274 C   0  0  0  0  0  0  0  0  0  0  0  0
   14.6469   -2.9849   17.0376 N   0  0  0  0  0  0  0  0  0  0  0  0
   15.3287   -3.1250   18.3198 C   0  0  0  0  0  0  0  0  0  0  0  0
   12.6371    1.5707   23.0838 C   0  0  0  0  0  0  0  0  0  0  0  0
   10.7071    7.6103   21.8088 H   0  0  0  0  0  0  0  0  0  0  0  0
   11.4123    7.4138   23.4200 H   0  0  0  0  0  0  0  0  0  0  0  0
    9.6467    7.4474   23.2082 H   0  0  0  0  0  0  0  0  0  0  0  0
    9.7293    5.3000   21.9534 H   0  0  0  0  0  0  0  0  0  0  0  0
   11.4881    5.3702   21.9646 H   0  0  0  0  0  0  0  0  0  0  0  0
    9.4233    4.4282   25.5197 H   0  0  0  0  0  0  0  0  0  0  0  0
    9.4386    6.0983   25.0160 H   0  0  0  0  0  0  0  0  0  0  0  0
    8.5166    4.9151   24.0697 H   0  0  0  0  0  0  0  0  0  0  0  0
   10.6209    2.8191   24.5046 H   0  0  0  0  0  0  0  0  0  0  0  0
   10.1268    3.0043   22.8242 H   0  0  0  0  0  0  0  0  0  0  0  0
   12.4783    3.5039   22.1708 H   0  0  0  0  0  0  0  0  0  0  0  0
   13.9786    4.2349   23.6818 H   0  0  0  0  0  0  0  0  0  0  0  0
   12.9296    3.8972   25.0728 H   0  0  0  0  0  0  0  0  0  0  0  0
   13.6146    1.5923   25.1941 H   0  0  0  0  0  0  0  0  0  0  0  0
   15.0602    2.4016   24.6508 H   0  0  0  0  0  0  0  0  0  0  0  0
   14.0434   -1.1039   22.3332 H   0  0  0  0  0  0  0  0  0  0  0  0
   14.3036   -3.0141   20.8339 H   0  0  0  0  0  0  0  0  0  0  0  0
   15.8802    1.4428   19.3981 H   0  0  0  0  0  0  0  0  0  0  0  0
   17.3423   -0.9698   17.5136 H   0  0  0  0  0  0  0  0  0  0  0  0
   16.6534    0.6343   17.3987 H   0  0  0  0  0  0  0  0  0  0  0  0
   14.5942   -0.3514   16.2646 H   0  0  0  0  0  0  0  0  0  0  0  0
   16.1024   -0.3945   15.3722 H   0  0  0  0  0  0  0  0  0  0  0  0
   14.9475   -2.4656   15.0619 H   0  0  0  0  0  0  0  0  0  0  0  0
   16.4300   -2.7824   15.9313 H   0  0  0  0  0  0  0  0  0  0  0  0
   13.7448   -2.5361   17.1692 H   0  0  0  0  0  0  0  0  0  0  0  0
   14.8680   -3.9807   18.8284 H   0  0  0  0  0  0  0  0  0  0  0  0
   16.3849   -3.3959   18.1967 H   0  0  0  0  0  0  0  0  0  0  0  0
   12.1306    0.9588   23.8492 H   0  0  0  0  0  0  0  0  0  0  0  0
   12.2705    1.1833   22.1350 H   0  0  0  0  0  0  0  0  0  0  0  0
  1  2  1  0
  2  3  1  0
  3  4  1  0
  3  5  1  0
  5  6  1  0
  6  7  1  0
  7  8  1  0
  8  9  1  0
  9 10  1  0
 10 11  2  0
 10 12  1  0
 12 13  2  0
 13 14  1  0
 14 15  2  0
 15 16  1  0
 16 17  2  0
 16 18  1  0
 18 19  1  0
 19 20  1  0
 20 21  1  0
 21 22  1  0
  9 23  1  0
 23  6  1  0
 17 12  1  0
 22 15  1  0
  1 24  1  0
  1 25  1  0
  1 26  1  0
  2 27  1  0
  2 28  1  0
  4 29  1  0
  4 30  1  0
  4 31  1  0
  5 32  1  0
  5 33  1  0
  6 34  1  0
  7 35  1  0
  7 36  1  0
  8 37  1  0
  8 38  1  0
 13 39  1  0
 14 40  1  0
 17 41  1  0
 18 42  1  0
 18 43  1  0
 19 44  1  0
 19 45  1  0
 20 46  1  0
 20 47  1  0
 21 48  1  0
 22 49  1  0
 22 50  1  0
 23 51  1  0
 23 52  1  0
M  END
>  <Energy>  (1077) 
99.039896792038022

>  <compound_id>  (1077) 
66577

>  <target_id>  (1077) 
1

>  <reference_id>  (1077) 
53

>  <inspiration_ids>  (1077) 
[53, 146]

>  <energy_score>  (1077) 
0.6064039630256275

>  <distance_score>  (1077) 
7.819739857638608

>  <path>  (1077) 
/opt/xchem-fragalysis-2/maxwin/BulkDock/SCRATCH/511022/C66577-P53/C66577-P53.minimised.mol

>  <scratch_subdir>  (1077) 
/opt/xchem-fragalysis-2/maxwin/BulkDock/SCRATCH/511022/C66577-P53

>  <fragmenstein_runtime>  (1077) 
5.630283832550049

>  <fragmenstein_outcome>  (1077) 
too moved

>  <fragmenstein_mode>  (1077) 
expansion

>  <fragmenstein_error>  (1077) 


$$$$
C66577-P146
     RDKit          3D

 52 54  0  0  0  0  0  0  0  0999 V2000
    5.6531   -2.1460   26.4270 C   0  0  0  0  0  0  0  0  0  0  0  0
    4.7913   -2.7295   25.3072 C   0  0  0  0  0  0  0  0  0  0  0  0
    5.3988   -3.8739   24.6194 N   0  0  0  0  0  0  0  0  0  0  0  0
    5.4279   -5.0518   25.4825 C   0  0  0  0  0  0  0  0  0  0  0  0
    4.8378   -4.1024   23.2634 C   0  0  0  0  0  0  0  0  0  0  0  0
    5.6251   -5.1938   22.4886 C   0  0  0  0  0  0  0  0  0  0  0  0
    5.2004   -6.5931   22.8218 C   0  0  0  0  0  0  0  0  0  0  0  0
    5.0152   -7.1615   21.4345 C   0  0  0  0  0  0  0  0  0  0  0  0
    6.0575   -6.6865   20.4914 N   0  0  0  0  0  0  0  0  0  0  0  0
    6.1240   -6.7458   19.0724 C   0  0  0  0  0  0  0  0  0  0  0  0
    5.3085   -7.1183   18.2653 O   0  0  0  0  0  0  0  0  0  0  0  0
    7.4522   -6.3800   18.3826 C   0  0  0  0  0  0  0  0  0  0  0  0
    7.1634   -5.6004   16.6915 C   0  0  0  0  0  0  0  0  0  0  0  0
    8.3885   -4.4071   15.7529 C   0  0  0  0  0  0  0  0  0  0  0  0
   10.2704   -4.1625   16.0676 C   0  0  0  0  0  0  0  0  0  0  0  0
   10.6800   -4.9700   17.6617 C   0  0  0  0  0  0  0  0  0  0  0  0
    9.4581   -5.9944   18.9584 C   0  0  0  0  0  0  0  0  0  0  0  0
   12.3493   -4.7559   17.7953 C   0  0  0  0  0  0  0  0  0  0  0  0
   13.1078   -3.4636   17.5276 C   0  0  0  0  0  0  0  0  0  0  0  0
   13.1119   -2.8186   16.1639 C   0  0  0  0  0  0  0  0  0  0  0  0
   11.8221   -2.2658   15.7837 N   0  0  0  0  0  0  0  0  0  0  0  0
   11.0209   -3.2878   15.1329 C   0  0  0  0  0  0  0  0  0  0  0  0
    5.5140   -5.3092   20.9542 C   0  0  0  0  0  0  0  0  0  0  0  0
    5.7178   -2.8171   27.2882 H   0  0  0  0  0  0  0  0  0  0  0  0
    5.2103   -1.2087   26.7810 H   0  0  0  0  0  0  0  0  0  0  0  0
    6.6692   -1.9259   26.0882 H   0  0  0  0  0  0  0  0  0  0  0  0
    3.8308   -3.0243   25.7383 H   0  0  0  0  0  0  0  0  0  0  0  0
    4.6163   -1.9188   24.5908 H   0  0  0  0  0  0  0  0  0  0  0  0
    4.4363   -5.5055   25.5849 H   0  0  0  0  0  0  0  0  0  0  0  0
    6.1335   -5.7977   25.1105 H   0  0  0  0  0  0  0  0  0  0  0  0
    5.7914   -4.8192   26.4880 H   0  0  0  0  0  0  0  0  0  0  0  0
    4.8831   -3.1726   22.6871 H   0  0  0  0  0  0  0  0  0  0  0  0
    3.7766   -4.3733   23.3327 H   0  0  0  0  0  0  0  0  0  0  0  0
    6.6899   -5.0825   22.7218 H   0  0  0  0  0  0  0  0  0  0  0  0
    4.2760   -6.6779   23.4002 H   0  0  0  0  0  0  0  0  0  0  0  0
    5.9955   -7.1336   23.3471 H   0  0  0  0  0  0  0  0  0  0  0  0
    5.1415   -8.2516   21.4781 H   0  0  0  0  0  0  0  0  0  0  0  0
    3.9993   -7.0380   21.0228 H   0  0  0  0  0  0  0  0  0  0  0  0
    6.1148   -5.6857   16.3544 H   0  0  0  0  0  0  0  0  0  0  0  0
    8.0682   -3.5849   15.0756 H   0  0  0  0  0  0  0  0  0  0  0  0
    9.9737   -5.9661   19.9146 H   0  0  0  0  0  0  0  0  0  0  0  0
   12.7728   -5.5122   17.1241 H   0  0  0  0  0  0  0  0  0  0  0  0
   12.6310   -5.0145   18.8270 H   0  0  0  0  0  0  0  0  0  0  0  0
   14.1594   -3.6647   17.7780 H   0  0  0  0  0  0  0  0  0  0  0  0
   12.7942   -2.7307   18.2458 H   0  0  0  0  0  0  0  0  0  0  0  0
   13.8222   -1.9826   16.2020 H   0  0  0  0  0  0  0  0  0  0  0  0
   13.5092   -3.4910   15.4086 H   0  0  0  0  0  0  0  0  0  0  0  0
   11.9962   -1.5375   15.0877 H   0  0  0  0  0  0  0  0  0  0  0  0
   10.2697   -2.7403   14.5551 H   0  0  0  0  0  0  0  0  0  0  0  0
   11.5746   -3.8701   14.3932 H   0  0  0  0  0  0  0  0  0  0  0  0
    4.5135   -5.0945   20.5422 H   0  0  0  0  0  0  0  0  0  0  0  0
    6.1683   -4.5624   20.5015 H   0  0  0  0  0  0  0  0  0  0  0  0
  1  2  1  0
  2  3  1  0
  3  4  1  0
  3  5  1  0
  5  6  1  0
  6  7  1  0
  7  8  1  0
  8  9  1  0
  9 10  1  0
 10 11  2  0
 10 12  1  0
 12 13  2  0
 13 14  1  0
 14 15  2  0
 15 16  1  0
 16 17  2  0
 16 18  1  0
 18 19  1  0
 19 20  1  0
 20 21  1  0
 21 22  1  0
  9 23  1  0
 23  6  1  0
 17 12  1  0
 22 15  1  0
  1 24  1  0
  1 25  1  0
  1 26  1  0
  2 27  1  0
  2 28  1  0
  4 29  1  0
  4 30  1  0
  4 31  1  0
  5 32  1  0
  5 33  1  0
  6 34  1  0
  7 35  1  0
  7 36  1  0
  8 37  1  0
  8 38  1  0
 13 39  1  0
 14 40  1  0
 17 41  1  0
 18 42  1  0
 18 43  1  0
 19 44  1  0
 19 45  1  0
 20 46  1  0
 20 47  1  0
 21 48  1  0
 22 49  1  0
 22 50  1  0
 23 51  1  0
 23 52  1  0
M  END
>  <Energy>  (1078) 
729.87166476163907

>  <compound_id>  (1078) 
66577

>  <target_id>  (1078) 
1

>  <reference_id>  (1078) 
146

>  <inspiration_ids>  (1078) 
[53, 146]

>  <energy_score>  (1078) 
631.4381719326308

>  <distance_score>  (1078) 
8.949932748514012

>  <path>  (1078) 
/opt/xchem-fragalysis-2/maxwin/BulkDock/SCRATCH/511022/C66577-P146/C66577-P146.minimised.mol

>  <scratch_subdir>  (1078) 
/opt/xchem-fragalysis-2/maxwin/BulkDock/SCRATCH/511022/C66577-P146

>  <fragmenstein_runtime>  (1078) 
5.594383001327515

>  <fragmenstein_outcome>  (1078) 
too moved

>  <fragmenstein_mode>  (1078) 
expansion

>  <fragmenstein_error>  (1078) 


$$$$
C66579-P53
     RDKit          3D

 52 54  0  0  0  0  0  0  0  0999 V2000
   10.8070    6.1228   24.8227 C   0  0  0  0  0  0  0  0  0  0  0  0
   11.5161    5.9064   23.4889 C   0  0  0  0  0  0  0  0  0  0  0  0
   10.8614    4.9966   22.5371 N   0  0  0  0  0  0  0  0  0  0  0  0
    9.6233    5.5680   22.0050 C   0  0  0  0  0  0  0  0  0  0  0  0
   10.6285    3.6367   23.0387 C   0  0  0  0  0  0  0  0  0  0  0  0
   11.9073    2.8791   23.4259 C   0  0  0  0  0  0  0  0  0  0  0  0
   11.6308    1.4258   23.8391 C   0  0  0  0  0  0  0  0  0  0  0  0
   13.0125    0.7680   23.7265 C   0  0  0  0  0  0  0  0  0  0  0  0
   13.7047    1.5204   22.6986 N   0  0  0  0  0  0  0  0  0  0  0  0
   14.9340    1.1687   22.1774 C   0  0  0  0  0  0  0  0  0  0  0  0
   15.9750    1.5844   22.6869 O   0  0  0  0  0  0  0  0  0  0  0  0
   15.0521    0.3723   20.9175 C   0  0  0  0  0  0  0  0  0  0  0  0
   15.7654    0.9667   19.8728 C   0  0  0  0  0  0  0  0  0  0  0  0
   16.0627    0.2558   18.7060 C   0  0  0  0  0  0  0  0  0  0  0  0
   15.6627   -1.0797   18.5486 C   0  0  0  0  0  0  0  0  0  0  0  0
   14.9582   -1.7125   19.5949 C   0  0  0  0  0  0  0  0  0  0  0  0
   14.6665   -0.9712   20.7821 C   0  0  0  0  0  0  0  0  0  0  0  0
   14.5430   -3.1779   19.5235 C   0  0  0  0  0  0  0  0  0  0  0  0
   14.2479   -3.8295   18.1487 C   0  0  0  0  0  0  0  0  0  0  0  0
   13.7120   -2.9289   17.1223 N   0  0  0  0  0  0  0  0  0  0  0  0
   14.7663   -2.1822   16.4293 C   0  0  0  0  0  0  0  0  0  0  0  0
   16.0004   -1.7890   17.2580 C   0  0  0  0  0  0  0  0  0  0  0  0
   12.9353    2.6926   22.2917 C   0  0  0  0  0  0  0  0  0  0  0  0
   11.3716    6.8403   25.4280 H   0  0  0  0  0  0  0  0  0  0  0  0
    9.8004    6.5286   24.6866 H   0  0  0  0  0  0  0  0  0  0  0  0
   10.7343    5.1959   25.3992 H   0  0  0  0  0  0  0  0  0  0  0  0
   11.6549    6.8823   23.0058 H   0  0  0  0  0  0  0  0  0  0  0  0
   12.5351    5.5533   23.6854 H   0  0  0  0  0  0  0  0  0  0  0  0
    9.8003    6.5664   21.5899 H   0  0  0  0  0  0  0  0  0  0  0  0
    8.8355    5.6405   22.7624 H   0  0  0  0  0  0  0  0  0  0  0  0
    9.2432    4.9542   21.1804 H   0  0  0  0  0  0  0  0  0  0  0  0
   10.1459    3.0593   22.2401 H   0  0  0  0  0  0  0  0  0  0  0  0
    9.9353    3.6414   23.8877 H   0  0  0  0  0  0  0  0  0  0  0  0
   12.3992    3.3742   24.2738 H   0  0  0  0  0  0  0  0  0  0  0  0
   10.9260    0.9645   23.1402 H   0  0  0  0  0  0  0  0  0  0  0  0
   11.2144    1.3416   24.8472 H   0  0  0  0  0  0  0  0  0  0  0  0
   13.0020   -0.2993   23.5086 H   0  0  0  0  0  0  0  0  0  0  0  0
   13.5754    0.9067   24.6571 H   0  0  0  0  0  0  0  0  0  0  0  0
   16.1241    1.9892   19.9804 H   0  0  0  0  0  0  0  0  0  0  0  0
   16.6222    0.7592   17.9199 H   0  0  0  0  0  0  0  0  0  0  0  0
   14.1652   -1.4607   21.6153 H   0  0  0  0  0  0  0  0  0  0  0  0
   15.3297   -3.7642   20.0161 H   0  0  0  0  0  0  0  0  0  0  0  0
   13.6458   -3.3069   20.1417 H   0  0  0  0  0  0  0  0  0  0  0  0
   13.5092   -4.6230   18.3149 H   0  0  0  0  0  0  0  0  0  0  0  0
   15.1359   -4.3547   17.7752 H   0  0  0  0  0  0  0  0  0  0  0  0
   13.0676   -2.2846   17.5686 H   0  0  0  0  0  0  0  0  0  0  0  0
   14.3121   -1.2790   16.0034 H   0  0  0  0  0  0  0  0  0  0  0  0
   15.1043   -2.7808   15.5750 H   0  0  0  0  0  0  0  0  0  0  0  0
   16.6379   -1.1509   16.6325 H   0  0  0  0  0  0  0  0  0  0  0  0
   16.6177   -2.6656   17.4905 H   0  0  0  0  0  0  0  0  0  0  0  0
   13.6009    3.5529   22.1715 H   0  0  0  0  0  0  0  0  0  0  0  0
   12.4577    2.4831   21.3317 H   0  0  0  0  0  0  0  0  0  0  0  0
  1  2  1  0
  2  3  1  0
  3  4  1  0
  3  5  1  0
  5  6  1  0
  6  7  1  0
  7  8  1  0
  8  9  1  0
  9 10  1  0
 10 11  2  0
 10 12  1  0
 12 13  2  0
 13 14  1  0
 14 15  2  0
 15 16  1  0
 16 17  2  0
 16 18  1  0
 18 19  1  0
 19 20  1  0
 20 21  1  0
 21 22  1  0
  9 23  1  0
 23  6  1  0
 17 12  1  0
 22 15  1  0
  1 24  1  0
  1 25  1  0
  1 26  1  0
  2 27  1  0
  2 28  1  0
  4 29  1  0
  4 30  1  0
  4 31  1  0
  5 32  1  0
  5 33  1  0
  6 34  1  0
  7 35  1  0
  7 36  1  0
  8 37  1  0
  8 38  1  0
 13 39  1  0
 14 40  1  0
 17 41  1  0
 18 42  1  0
 18 43  1  0
 19 44  1  0
 19 45  1  0
 20 46  1  0
 21 47  1  0
 21 48  1  0
 22 49  1  0
 22 50  1  0
 23 51  1  0
 23 52  1  0
M  END
>  <Energy>  (1079) 
97.374932103458264

>  <compound_id>  (1079) 
66579

>  <target_id>  (1079) 
1

>  <reference_id>  (1079) 
53

>  <inspiration_ids>  (1079) 
[53, 146]

>  <energy_score>  (1079) 
-25.193819793104296

>  <distance_score>  (1079) 
7.743754620968892

>  <path>  (1079) 
/opt/xchem-fragalysis-2/maxwin/BulkDock/SCRATCH/511022/C66579-P53/C66579-P53.minimised.mol

>  <scratch_subdir>  (1079) 
/opt/xchem-fragalysis-2/maxwin/BulkDock/SCRATCH/511022/C66579-P53

>  <fragmenstein_runtime>  (1079) 
6.983373165130615

>  <fragmenstein_outcome>  (1079) 
too moved

>  <fragmenstein_mode>  (1079) 
expansion

>  <fragmenstein_error>  (1079) 


$$$$
C66579-P146
     RDKit          3D

 52 54  0  0  0  0  0  0  0  0999 V2000
    2.1144    1.4669   27.4055 C   0  0  0  0  0  0  0  0  0  0  0  0
    3.4380    1.1060   28.0652 C   0  0  0  0  0  0  0  0  0  0  0  0
    4.4184    0.4650   27.1581 N   0  0  0  0  0  0  0  0  0  0  0  0
    5.6967    0.3593   27.8765 C   0  0  0  0  0  0  0  0  0  0  0  0
    3.9282   -0.8477   26.6761 C   0  0  0  0  0  0  0  0  0  0  0  0
    4.9444   -1.6236   25.8283 C   0  0  0  0  0  0  0  0  0  0  0  0
    4.6511   -2.8197   25.1056 C   0  0  0  0  0  0  0  0  0  0  0  0
    4.8824   -1.7423   23.8940 C   0  0  0  0  0  0  0  0  0  0  0  0
    4.9437   -1.3999   22.4758 N   0  0  0  0  0  0  0  0  0  0  0  0
    5.5384    0.1167   21.4375 C   0  0  0  0  0  0  0  0  0  0  0  0
    4.6297    0.8679   21.2955 O   0  0  0  0  0  0  0  0  0  0  0  0
    7.2695    0.6640   20.3702 C   0  0  0  0  0  0  0  0  0  0  0  0
    8.1971    1.7757   20.5845 C   0  0  0  0  0  0  0  0  0  0  0  0
    9.0986    2.4004   19.6595 C   0  0  0  0  0  0  0  0  0  0  0  0
    9.2721    1.9652   18.3601 C   0  0  0  0  0  0  0  0  0  0  0  0
    8.6475    0.7617   18.0857 C   0  0  0  0  0  0  0  0  0  0  0  0
    7.7420    0.1222   19.1466 C   0  0  0  0  0  0  0  0  0  0  0  0
    8.5629    0.3616   16.5980 C   0  0  0  0  0  0  0  0  0  0  0  0
    9.8115    0.1710   15.7296 C   0  0  0  0  0  0  0  0  0  0  0  0
   10.6164    1.3498   15.4298 N   0  0  0  0  0  0  0  0  0  0  0  0
   10.1210    2.6201   15.9236 C   0  0  0  0  0  0  0  0  0  0  0  0
   10.1207    2.8180   17.4449 C   0  0  0  0  0  0  0  0  0  0  0  0
    5.2551   -0.9810   24.3851 C   0  0  0  0  0  0  0  0  0  0  0  0
    2.2746    2.0341   26.4830 H   0  0  0  0  0  0  0  0  0  0  0  0
    1.5208    0.5765   27.1810 H   0  0  0  0  0  0  0  0  0  0  0  0
    1.5193    2.0904   28.0812 H   0  0  0  0  0  0  0  0  0  0  0  0
    3.8650    2.0465   28.4369 H   0  0  0  0  0  0  0  0  0  0  0  0
    3.2476    0.4745   28.9426 H   0  0  0  0  0  0  0  0  0  0  0  0
    5.6533   -0.3744   28.6892 H   0  0  0  0  0  0  0  0  0  0  0  0
    5.9865    1.3267   28.3037 H   0  0  0  0  0  0  0  0  0  0  0  0
    6.5120    0.0938   27.1967 H   0  0  0  0  0  0  0  0  0  0  0  0
    3.6318   -1.4789   27.5235 H   0  0  0  0  0  0  0  0  0  0  0  0
    3.0365   -0.6694   26.0767 H   0  0  0  0  0  0  0  0  0  0  0  0
    5.8683   -1.7786   26.4011 H   0  0  0  0  0  0  0  0  0  0  0  0
    5.4499   -3.5672   25.2172 H   0  0  0  0  0  0  0  0  0  0  0  0
    3.6856   -3.2803   25.2848 H   0  0  0  0  0  0  0  0  0  0  0  0
    3.8225   -2.0546   23.6279 H   0  0  0  0  0  0  0  0  0  0  0  0
    5.5641   -2.5649   23.5431 H   0  0  0  0  0  0  0  0  0  0  0  0
    8.3310    2.3323   21.5001 H   0  0  0  0  0  0  0  0  0  0  0  0
    9.6395    3.2850   20.0043 H   0  0  0  0  0  0  0  0  0  0  0  0
    7.0512   -0.6238   18.8031 H   0  0  0  0  0  0  0  0  0  0  0  0
    7.9185   -0.4988   16.4290 H   0  0  0  0  0  0  0  0  0  0  0  0
    8.0078    1.1804   16.1461 H   0  0  0  0  0  0  0  0  0  0  0  0
   10.4332   -0.6327   16.1341 H   0  0  0  0  0  0  0  0  0  0  0  0
    9.4709   -0.2094   14.7583 H   0  0  0  0  0  0  0  0  0  0  0  0
   11.6070    1.2233   15.6438 H   0  0  0  0  0  0  0  0  0  0  0  0
   10.7688    3.3969   15.4972 H   0  0  0  0  0  0  0  0  0  0  0  0
    9.1296    2.8416   15.5143 H   0  0  0  0  0  0  0  0  0  0  0  0
    9.7976    3.8579   17.6017 H   0  0  0  0  0  0  0  0  0  0  0  0
   11.1487    2.7830   17.8103 H   0  0  0  0  0  0  0  0  0  0  0  0
    4.8182    0.0685   24.4812 H   0  0  0  0  0  0  0  0  0  0  0  0
    6.2792   -0.6561   24.6383 H   0  0  0  0  0  0  0  0  0  0  0  0
  1  2  1  0
  2  3  1  0
  3  4  1  0
  3  5  1  0
  5  6  1  0
  6  7  1  0
  7  8  1  0
  8  9  1  0
  9 10  1  0
 10 11  2  0
 10 12  1  0
 12 13  2  0
 13 14  1  0
 14 15  2  0
 15 16  1  0
 16 17  2  0
 16 18  1  0
 18 19  1  0
 19 20  1  0
 20 21  1  0
 21 22  1  0
  9 23  1  0
 23  6  1  0
 17 12  1  0
 22 15  1  0
  1 24  1  0
  1 25  1  0
  1 26  1  0
  2 27  1  0
  2 28  1  0
  4 29  1  0
  4 30  1  0
  4 31  1  0
  5 32  1  0
  5 33  1  0
  6 34  1  0
  7 35  1  0
  7 36  1  0
  8 37  1  0
  8 38  1  0
 13 39  1  0
 14 40  1  0
 17 41  1  0
 18 42  1  0
 18 43  1  0
 19 44  1  0
 19 45  1  0
 20 46  1  0
 21 47  1  0
 21 48  1  0
 22 49  1  0
 22 50  1  0
 23 51  1  0
 23 52  1  0
M  END
>  <Energy>  (1080) 
953.94157332917246

>  <compound_id>  (1080) 
66579

>  <target_id>  (1080) 
1

>  <reference_id>  (1080) 
146

>  <inspiration_ids>  (1080) 
[53, 146]

>  <energy_score>  (1080) 
831.3728214326063

>  <distance_score>  (1080) 
7.025579257713781

>  <path>  (1080) 
/opt/xchem-fragalysis-2/maxwin/BulkDock/SCRATCH/511022/C66579-P146/C66579-P146.minimised.mol

>  <scratch_subdir>  (1080) 
/opt/xchem-fragalysis-2/maxwin/BulkDock/SCRATCH/511022/C66579-P146

>  <fragmenstein_runtime>  (1080) 
6.923753023147583

>  <fragmenstein_outcome>  (1080) 
too moved

>  <fragmenstein_mode>  (1080) 
expansion

>  <fragmenstein_error>  (1080) 


$$$$
C66580-P53
     RDKit          3D

 49 52  0  0  0  0  0  0  0  0999 V2000
    4.7242    1.3270   22.0557 O   0  0  0  0  0  0  0  0  0  0  0  0
    4.9972    0.2538   22.3676 C   0  0  0  0  0  0  0  0  0  0  0  0
    5.6989   -0.7051   21.7408 N   0  0  0  0  0  0  0  0  0  0  0  0
    6.8481   -0.6658   20.0282 C   0  0  0  0  0  0  0  0  0  0  0  0
    8.7416   -1.0829   19.2512 C   0  0  0  0  0  0  0  0  0  0  0  0
    8.7702   -0.3220   17.5450 C   0  0  0  0  0  0  0  0  0  0  0  0
   10.0978   -1.0029   16.4460 C   0  0  0  0  0  0  0  0  0  0  0  0
   11.4743   -2.1045   16.9910 C   0  0  0  0  0  0  0  0  0  0  0  0
   11.7630   -2.8230   18.6626 C   0  0  0  0  0  0  0  0  0  0  0  0
   10.1204   -2.5408   20.0418 C   0  0  0  0  0  0  0  0  0  0  0  0
   13.0238   -3.6289   18.5090 C   0  0  0  0  0  0  0  0  0  0  0  0
   13.3185   -3.6809   17.0298 N   0  0  0  0  0  0  0  0  0  0  0  0
   12.6583   -2.6095   16.2198 C   0  0  0  0  0  0  0  0  0  0  0  0
    4.8066   -0.5697   23.8884 N   0  0  0  0  0  0  0  0  0  0  0  0
    3.7659   -1.3028   24.3007 C   0  0  0  0  0  0  0  0  0  0  0  0
    4.2796   -2.0764   25.5792 C   0  0  0  0  0  0  0  0  0  0  0  0
    4.3456   -0.8938   26.4680 C   0  0  0  0  0  0  0  0  0  0  0  0
    3.2063   -0.7558   27.3772 N   0  0  0  0  0  0  0  0  0  0  0  0
    3.1736    0.5433   28.0575 C   0  0  0  0  0  0  0  0  0  0  0  0
    2.1806    0.3214   29.1885 C   0  0  0  0  0  0  0  0  0  0  0  0
    2.1950   -1.1807   29.4425 C   0  0  0  0  0  0  0  0  0  0  0  0
    3.2175   -1.7380   28.4643 C   0  0  0  0  0  0  0  0  0  0  0  0
    4.3009    0.0588   25.2829 C   0  0  0  0  0  0  0  0  0  0  0  0
    5.6423   -1.5760   22.3013 H   0  0  0  0  0  0  0  0  0  0  0  0
    6.6102   -1.6775   20.0540 H   0  0  0  0  0  0  0  0  0  0  0  0
    6.7380    0.1900   19.3828 H   0  0  0  0  0  0  0  0  0  0  0  0
    7.9941    0.3469   17.1847 H   0  0  0  0  0  0  0  0  0  0  0  0
   10.1150   -0.6577   15.4070 H   0  0  0  0  0  0  0  0  0  0  0  0
   10.6091   -3.1254   20.9733 H   0  0  0  0  0  0  0  0  0  0  0  0
   13.8556   -3.1285   19.0129 H   0  0  0  0  0  0  0  0  0  0  0  0
   12.9250   -4.6441   18.9015 H   0  0  0  0  0  0  0  0  0  0  0  0
   12.9481   -4.5798   16.7066 H   0  0  0  0  0  0  0  0  0  0  0  0
   13.3666   -1.7917   16.0617 H   0  0  0  0  0  0  0  0  0  0  0  0
   12.3451   -3.0135   15.2533 H   0  0  0  0  0  0  0  0  0  0  0  0
    2.8281   -0.7494   24.4090 H   0  0  0  0  0  0  0  0  0  0  0  0
    3.7240   -2.0703   23.5070 H   0  0  0  0  0  0  0  0  0  0  0  0
    5.2802   -2.4944   25.3983 H   0  0  0  0  0  0  0  0  0  0  0  0
    3.6698   -2.9017   25.9556 H   0  0  0  0  0  0  0  0  0  0  0  0
    5.3043   -0.8481   26.9994 H   0  0  0  0  0  0  0  0  0  0  0  0
    2.8448    1.3541   27.4003 H   0  0  0  0  0  0  0  0  0  0  0  0
    4.1558    0.8053   28.4713 H   0  0  0  0  0  0  0  0  0  0  0  0
    1.1737    0.6379   28.8919 H   0  0  0  0  0  0  0  0  0  0  0  0
    2.4604    0.8866   30.0833 H   0  0  0  0  0  0  0  0  0  0  0  0
    2.4584   -1.4159   30.4786 H   0  0  0  0  0  0  0  0  0  0  0  0
    1.2009   -1.5990   29.2447 H   0  0  0  0  0  0  0  0  0  0  0  0
    4.2015   -1.7951   28.9470 H   0  0  0  0  0  0  0  0  0  0  0  0
    2.9339   -2.7408   28.1312 H   0  0  0  0  0  0  0  0  0  0  0  0
    5.0819    0.8039   25.5105 H   0  0  0  0  0  0  0  0  0  0  0  0
    3.4558    0.7684   25.1788 H   0  0  0  0  0  0  0  0  0  0  0  0
  1  2  2  0
  2  3  1  0
  3  4  1  0
  4  5  1  0
  5  6  2  0
  6  7  1  0
  7  8  2  0
  8  9  1  0
  9 10  2  0
  9 11  1  0
 11 12  1  0
 12 13  1  0
  2 14  1  0
 14 15  1  0
 15 16  1  0
 16 17  1  0
 17 18  1  0
 18 19  1  0
 19 20  1  0
 20 21  1  0
 21 22  1  0
 17 23  1  0
 10  5  1  0
 23 14  1  0
 13  8  1  0
 22 18  1  0
  3 24  1  0
  4 25  1  0
  4 26  1  0
  6 27  1  0
  7 28  1  0
 10 29  1  0
 11 30  1  0
 11 31  1  0
 12 32  1  0
 13 33  1  0
 13 34  1  0
 15 35  1  0
 15 36  1  0
 16 37  1  0
 16 38  1  0
 17 39  1  0
 19 40  1  0
 19 41  1  0
 20 42  1  0
 20 43  1  0
 21 44  1  0
 21 45  1  0
 22 46  1  0
 22 47  1  0
 23 48  1  0
 23 49  1  0
M  END
>  <Energy>  (1081) 
1038.7051243543649

>  <compound_id>  (1081) 
66580

>  <target_id>  (1081) 
1

>  <reference_id>  (1081) 
53

>  <inspiration_ids>  (1081) 
[53, 146]

>  <energy_score>  (1081) 
1023.938623076314

>  <distance_score>  (1081) 
6.4359744941986055

>  <path>  (1081) 
/opt/xchem-fragalysis-2/maxwin/BulkDock/SCRATCH/511022/C66580-P53/C66580-P53.minimised.mol

>  <scratch_subdir>  (1081) 
/opt/xchem-fragalysis-2/maxwin/BulkDock/SCRATCH/511022/C66580-P53

>  <fragmenstein_runtime>  (1081) 
15.196796417236328

>  <fragmenstein_outcome>  (1081) 
too moved

>  <fragmenstein_mode>  (1081) 
expansion

>  <fragmenstein_error>  (1081) 


$$$$
C66580-P146
     RDKit          3D

 49 52  0  0  0  0  0  0  0  0999 V2000
   11.5224    1.1828   22.0432 O   0  0  0  0  0  0  0  0  0  0  0  0
   10.3853    1.3568   21.7924 C   0  0  0  0  0  0  0  0  0  0  0  0
    9.4174    0.5106   20.9992 N   0  0  0  0  0  0  0  0  0  0  0  0
    9.6593   -0.9150   20.1020 C   0  0  0  0  0  0  0  0  0  0  0  0
   10.7845   -2.9358   20.5171 C   0  0  0  0  0  0  0  0  0  0  0  0
   11.6148   -3.6171   21.8223 C   0  0  0  0  0  0  0  0  0  0  0  0
   12.8830   -4.3739   22.0345 C   0  0  0  0  0  0  0  0  0  0  0  0
   13.7833   -4.6447   21.0234 C   0  0  0  0  0  0  0  0  0  0  0  0
   13.4945   -4.2442   19.7657 C   0  0  0  0  0  0  0  0  0  0  0  0
   12.3107   -3.5267   19.5682 C   0  0  0  0  0  0  0  0  0  0  0  0
   14.6179   -4.4968   18.8314 C   0  0  0  0  0  0  0  0  0  0  0  0
   15.5771   -5.3145   19.6072 N   0  0  0  0  0  0  0  0  0  0  0  0
   15.1735   -5.1783   21.0365 C   0  0  0  0  0  0  0  0  0  0  0  0
    9.5143    2.5100   22.0757 N   0  0  0  0  0  0  0  0  0  0  0  0
    9.5514    3.4873   20.9291 C   0  0  0  0  0  0  0  0  0  0  0  0
   10.7981    4.3180   20.9034 C   0  0  0  0  0  0  0  0  0  0  0  0
   10.8066    4.7640   22.3265 C   0  0  0  0  0  0  0  0  0  0  0  0
   12.1487    4.7517   22.9091 N   0  0  0  0  0  0  0  0  0  0  0  0
   12.1795    5.0637   24.3400 C   0  0  0  0  0  0  0  0  0  0  0  0
   13.6365    5.4158   24.6128 C   0  0  0  0  0  0  0  0  0  0  0  0
   14.2404    5.7224   23.2493 C   0  0  0  0  0  0  0  0  0  0  0  0
   13.0616    5.7170   22.2922 C   0  0  0  0  0  0  0  0  0  0  0  0
    9.7798    3.7717   22.8706 C   0  0  0  0  0  0  0  0  0  0  0  0
    8.5395    1.0002   20.9122 H   0  0  0  0  0  0  0  0  0  0  0  0
    8.5549   -0.9707   19.6698 H   0  0  0  0  0  0  0  0  0  0  0  0
    9.5691   -0.2022   19.2020 H   0  0  0  0  0  0  0  0  0  0  0  0
   11.2968   -3.3761   22.8547 H   0  0  0  0  0  0  0  0  0  0  0  0
   13.1499   -4.6076   23.0654 H   0  0  0  0  0  0  0  0  0  0  0  0
   12.3174   -3.1982   18.4908 H   0  0  0  0  0  0  0  0  0  0  0  0
   14.2908   -5.0300   17.9336 H   0  0  0  0  0  0  0  0  0  0  0  0
   15.0944   -3.5544   18.5423 H   0  0  0  0  0  0  0  0  0  0  0  0
   15.4237   -6.2877   19.3437 H   0  0  0  0  0  0  0  0  0  0  0  0
   15.2365   -6.1452   21.5436 H   0  0  0  0  0  0  0  0  0  0  0  0
   15.8453   -4.4687   21.5311 H   0  0  0  0  0  0  0  0  0  0  0  0
    9.5100    2.9122   19.9941 H   0  0  0  0  0  0  0  0  0  0  0  0
    8.6248    4.0870   20.9154 H   0  0  0  0  0  0  0  0  0  0  0  0
   10.7448    5.1466   20.1908 H   0  0  0  0  0  0  0  0  0  0  0  0
   11.6646    3.6983   20.6424 H   0  0  0  0  0  0  0  0  0  0  0  0
   10.3843    5.7748   22.4156 H   0  0  0  0  0  0  0  0  0  0  0  0
   11.8636    4.2192   24.9597 H   0  0  0  0  0  0  0  0  0  0  0  0
   11.5430    5.9260   24.5764 H   0  0  0  0  0  0  0  0  0  0  0  0
   14.1670    4.5775   25.0784 H   0  0  0  0  0  0  0  0  0  0  0  0
   13.7120    6.2766   25.2855 H   0  0  0  0  0  0  0  0  0  0  0  0
   14.7708    6.6797   23.2411 H   0  0  0  0  0  0  0  0  0  0  0  0
   14.9578    4.9381   22.9786 H   0  0  0  0  0  0  0  0  0  0  0  0
   12.6152    6.7183   22.2411 H   0  0  0  0  0  0  0  0  0  0  0  0
   13.3734    5.4202   21.2860 H   0  0  0  0  0  0  0  0  0  0  0  0
   10.0829    3.4086   23.8599 H   0  0  0  0  0  0  0  0  0  0  0  0
    8.8247    4.2920   23.0487 H   0  0  0  0  0  0  0  0  0  0  0  0
  1  2  2  0
  2  3  1  0
  3  4  1  0
  4  5  1  0
  5  6  2  0
  6  7  1  0
  7  8  2  0
  8  9  1  0
  9 10  2  0
  9 11  1  0
 11 12  1  0
 12 13  1  0
  2 14  1  0
 14 15  1  0
 15 16  1  0
 16 17  1  0
 17 18  1  0
 18 19  1  0
 19 20  1  0
 20 21  1  0
 21 22  1  0
 17 23  1  0
 10  5  1  0
 23 14  1  0
 13  8  1  0
 22 18  1  0
  3 24  1  0
  4 25  1  0
  4 26  1  0
  6 27  1  0
  7 28  1  0
 10 29  1  0
 11 30  1  0
 11 31  1  0
 12 32  1  0
 13 33  1  0
 13 34  1  0
 15 35  1  0
 15 36  1  0
 16 37  1  0
 16 38  1  0
 17 39  1  0
 19 40  1  0
 19 41  1  0
 20 42  1  0
 20 43  1  0
 21 44  1  0
 21 45  1  0
 22 46  1  0
 22 47  1  0
 23 48  1  0
 23 49  1  0
M  END
>  <Energy>  (1082) 
604.00322379409181

>  <compound_id>  (1082) 
66580

>  <target_id>  (1082) 
1

>  <reference_id>  (1082) 
146

>  <inspiration_ids>  (1082) 
[53, 146]

>  <energy_score>  (1082) 
589.2367225160378

>  <distance_score>  (1082) 
9.819169390713276

>  <path>  (1082) 
/opt/xchem-fragalysis-2/maxwin/BulkDock/SCRATCH/511022/C66580-P146/C66580-P146.minimised.mol

>  <scratch_subdir>  (1082) 
/opt/xchem-fragalysis-2/maxwin/BulkDock/SCRATCH/511022/C66580-P146

>  <fragmenstein_runtime>  (1082) 
26.77563214302063

>  <fragmenstein_outcome>  (1082) 
too moved

>  <fragmenstein_mode>  (1082) 
expansion

>  <fragmenstein_error>  (1082) 


$$$$
C66581-P53
     RDKit          3D

 45 48  0  0  0  0  0  0  0  0999 V2000
   13.9451   -1.1384   21.8738 C   0  0  0  0  0  0  0  0  0  0  0  0
   14.4119   -2.0441   20.8580 C   0  0  0  0  0  0  0  0  0  0  0  0
   14.8736   -1.5569   19.6548 C   0  0  0  0  0  0  0  0  0  0  0  0
   15.0292   -0.1862   19.5321 C   0  0  0  0  0  0  0  0  0  0  0  0
   14.4920    0.7232   20.5109 C   0  0  0  0  0  0  0  0  0  0  0  0
   13.8199    0.2684   21.6984 C   0  0  0  0  0  0  0  0  0  0  0  0
   13.1164    1.2874   22.8770 C   0  0  0  0  0  0  0  0  0  0  0  0
   11.5814    1.8470   23.0491 N   0  0  0  0  0  0  0  0  0  0  0  0
   10.7127    1.1652   24.0712 C   0  0  0  0  0  0  0  0  0  0  0  0
   10.0399    2.2120   25.0119 C   0  0  0  0  0  0  0  0  0  0  0  0
   10.1257    3.5150   24.2322 C   0  0  0  0  0  0  0  0  0  0  0  0
    9.8560    4.7705   24.9546 N   0  0  0  0  0  0  0  0  0  0  0  0
    8.5753    4.8571   25.6466 C   0  0  0  0  0  0  0  0  0  0  0  0
    8.7192    6.0990   26.5173 C   0  0  0  0  0  0  0  0  0  0  0  0
   10.2188    6.3348   26.6416 C   0  0  0  0  0  0  0  0  0  0  0  0
   10.8641    5.1502   25.9406 C   0  0  0  0  0  0  0  0  0  0  0  0
   11.5249    3.2809   23.5620 C   0  0  0  0  0  0  0  0  0  0  0  0
   15.7353    0.0224   18.2119 C   0  0  0  0  0  0  0  0  0  0  0  0
   15.3835   -1.1521   17.3783 N   0  0  0  0  0  0  0  0  0  0  0  0
   15.2276   -2.2467   18.3650 C   0  0  0  0  0  0  0  0  0  0  0  0
   13.5831   -1.5755   22.8061 H   0  0  0  0  0  0  0  0  0  0  0  0
   14.3375   -3.1141   21.0341 H   0  0  0  0  0  0  0  0  0  0  0  0
   14.5633    1.7939   20.3282 H   0  0  0  0  0  0  0  0  0  0  0  0
   13.7117    2.2011   22.7459 H   0  0  0  0  0  0  0  0  0  0  0  0
   13.4118    0.8667   23.8460 H   0  0  0  0  0  0  0  0  0  0  0  0
   11.2747    0.4324   24.6591 H   0  0  0  0  0  0  0  0  0  0  0  0
    9.9450    0.6358   23.5145 H   0  0  0  0  0  0  0  0  0  0  0  0
   10.6543    2.2755   25.9192 H   0  0  0  0  0  0  0  0  0  0  0  0
    9.0489    1.9083   25.3415 H   0  0  0  0  0  0  0  0  0  0  0  0
    9.4445    3.5206   23.3860 H   0  0  0  0  0  0  0  0  0  0  0  0
    8.3906    3.9880   26.2882 H   0  0  0  0  0  0  0  0  0  0  0  0
    7.7379    4.9706   24.9522 H   0  0  0  0  0  0  0  0  0  0  0  0
    8.2421    6.9671   26.0480 H   0  0  0  0  0  0  0  0  0  0  0  0
    8.2541    5.9502   27.4974 H   0  0  0  0  0  0  0  0  0  0  0  0
   10.5354    6.4111   27.6866 H   0  0  0  0  0  0  0  0  0  0  0  0
   10.4878    7.2723   26.1402 H   0  0  0  0  0  0  0  0  0  0  0  0
   11.8133    5.4417   25.4807 H   0  0  0  0  0  0  0  0  0  0  0  0
   11.0544    4.3525   26.6674 H   0  0  0  0  0  0  0  0  0  0  0  0
   11.6859    3.9732   22.7293 H   0  0  0  0  0  0  0  0  0  0  0  0
   12.3260    3.4258   24.2978 H   0  0  0  0  0  0  0  0  0  0  0  0
   15.5141    0.9664   17.7292 H   0  0  0  0  0  0  0  0  0  0  0  0
   16.8166    0.0169   18.4050 H   0  0  0  0  0  0  0  0  0  0  0  0
   16.1455   -1.3694   16.7421 H   0  0  0  0  0  0  0  0  0  0  0  0
   14.4328   -2.9265   18.0455 H   0  0  0  0  0  0  0  0  0  0  0  0
   16.1677   -2.7959   18.4841 H   0  0  0  0  0  0  0  0  0  0  0  0
  1  2  2  0
  2  3  1  0
  3  4  2  0
  4  5  1  0
  5  6  2  0
  6  7  1  0
  7  8  1  0
  8  9  1  0
  9 10  1  0
 10 11  1  0
 11 12  1  0
 12 13  1  0
 13 14  1  0
 14 15  1  0
 15 16  1  0
 11 17  1  0
  4 18  1  0
 18 19  1  0
 19 20  1  0
  6  1  1  0
 17  8  1  0
 20  3  1  0
 16 12  1  0
  1 21  1  0
  2 22  1  0
  5 23  1  0
  7 24  1  0
  7 25  1  0
  9 26  1  0
  9 27  1  0
 10 28  1  0
 10 29  1  0
 11 30  1  0
 13 31  1  0
 13 32  1  0
 14 33  1  0
 14 34  1  0
 15 35  1  0
 15 36  1  0
 16 37  1  0
 16 38  1  0
 17 39  1  0
 17 40  1  0
 18 41  1  0
 18 42  1  0
 19 43  1  0
 20 44  1  0
 20 45  1  0
M  END
>  <Energy>  (1083) 
115.55289981025359

>  <compound_id>  (1083) 
66581

>  <target_id>  (1083) 
1

>  <reference_id>  (1083) 
53

>  <inspiration_ids>  (1083) 
[53, 146]

>  <energy_score>  (1083) 
27.66866182746773

>  <distance_score>  (1083) 
6.9354496466775855

>  <path>  (1083) 
/opt/xchem-fragalysis-2/maxwin/BulkDock/SCRATCH/511022/C66581-P53/C66581-P53.minimised.mol

>  <scratch_subdir>  (1083) 
/opt/xchem-fragalysis-2/maxwin/BulkDock/SCRATCH/511022/C66581-P53

>  <fragmenstein_runtime>  (1083) 
3.810645580291748

>  <fragmenstein_outcome>  (1083) 
too moved

>  <fragmenstein_mode>  (1083) 
expansion

>  <fragmenstein_error>  (1083) 


$$$$
C66581-P146
     RDKit          3D

 45 48  0  0  0  0  0  0  0  0999 V2000
   10.0996   -2.6769   20.2275 C   0  0  0  0  0  0  0  0  0  0  0  0
   11.7508   -2.9898   18.8774 C   0  0  0  0  0  0  0  0  0  0  0  0
   11.4973   -2.1367   17.2563 C   0  0  0  0  0  0  0  0  0  0  0  0
   10.2208   -0.8881   16.8298 C   0  0  0  0  0  0  0  0  0  0  0  0
    8.9979   -0.1075   17.9667 C   0  0  0  0  0  0  0  0  0  0  0  0
    8.8701   -0.9718   19.6359 C   0  0  0  0  0  0  0  0  0  0  0  0
    7.0098    0.0010   20.1080 C   0  0  0  0  0  0  0  0  0  0  0  0
    5.4616    0.5222   21.5284 N   0  0  0  0  0  0  0  0  0  0  0  0
    3.7022    1.2860   21.6441 C   0  0  0  0  0  0  0  0  0  0  0  0
    3.2251    2.2212   23.1190 C   0  0  0  0  0  0  0  0  0  0  0  0
    3.6389    1.3453   24.3471 C   0  0  0  0  0  0  0  0  0  0  0  0
    3.9093    2.0803   25.6291 N   0  0  0  0  0  0  0  0  0  0  0  0
    4.1398    1.1766   26.7606 C   0  0  0  0  0  0  0  0  0  0  0  0
    4.0747    2.1217   27.9493 C   0  0  0  0  0  0  0  0  0  0  0  0
    3.1499    3.2509   27.5063 C   0  0  0  0  0  0  0  0  0  0  0  0
    2.8131    2.9496   26.0519 C   0  0  0  0  0  0  0  0  0  0  0  0
    4.8431    0.2516   23.4528 C   0  0  0  0  0  0  0  0  0  0  0  0
   10.4338   -0.6902   15.3554 C   0  0  0  0  0  0  0  0  0  0  0  0
   11.7652   -1.2777   15.0414 N   0  0  0  0  0  0  0  0  0  0  0  0
   12.1762   -2.3863   15.9408 C   0  0  0  0  0  0  0  0  0  0  0  0
   10.6835   -3.2853   21.0812 H   0  0  0  0  0  0  0  0  0  0  0  0
   12.5485   -3.7343   19.0513 H   0  0  0  0  0  0  0  0  0  0  0  0
    8.3100    0.6557   17.6356 H   0  0  0  0  0  0  0  0  0  0  0  0
    7.6676    0.8628   20.3731 H   0  0  0  0  0  0  0  0  0  0  0  0
    6.9900   -1.0810   20.3355 H   0  0  0  0  0  0  0  0  0  0  0  0
    2.9621    0.7120   21.2394 H   0  0  0  0  0  0  0  0  0  0  0  0
    3.0344    1.9329   20.9351 H   0  0  0  0  0  0  0  0  0  0  0  0
    3.6323    3.2384   23.0688 H   0  0  0  0  0  0  0  0  0  0  0  0
    2.1717    2.4695   23.1449 H   0  0  0  0  0  0  0  0  0  0  0  0
    2.9350    0.6069   24.6965 H   0  0  0  0  0  0  0  0  0  0  0  0
    5.1075    0.6690   26.7046 H   0  0  0  0  0  0  0  0  0  0  0  0
    3.3515    0.4183   26.8496 H   0  0  0  0  0  0  0  0  0  0  0  0
    3.7038    1.6192   28.8481 H   0  0  0  0  0  0  0  0  0  0  0  0
    5.0686    2.5258   28.1758 H   0  0  0  0  0  0  0  0  0  0  0  0
    3.6663    4.2133   27.5991 H   0  0  0  0  0  0  0  0  0  0  0  0
    2.2452    3.2945   28.1216 H   0  0  0  0  0  0  0  0  0  0  0  0
    2.7589    3.8681   25.4595 H   0  0  0  0  0  0  0  0  0  0  0  0
    1.8427    2.4434   25.9992 H   0  0  0  0  0  0  0  0  0  0  0  0
    5.5878    0.0349   24.2862 H   0  0  0  0  0  0  0  0  0  0  0  0
    4.5239   -0.8587   23.5178 H   0  0  0  0  0  0  0  0  0  0  0  0
    9.6470   -1.2239   14.8169 H   0  0  0  0  0  0  0  0  0  0  0  0
   10.4203    0.3706   15.0951 H   0  0  0  0  0  0  0  0  0  0  0  0
   11.7847   -1.5756   14.0689 H   0  0  0  0  0  0  0  0  0  0  0  0
   11.8290   -3.3419   15.5378 H   0  0  0  0  0  0  0  0  0  0  0  0
   13.2624   -2.3971   16.0550 H   0  0  0  0  0  0  0  0  0  0  0  0
  1  2  2  0
  2  3  1  0
  3  4  2  0
  4  5  1  0
  5  6  2  0
  6  7  1  0
  7  8  1  0
  8  9  1  0
  9 10  1  0
 10 11  1  0
 11 12  1  0
 12 13  1  0
 13 14  1  0
 14 15  1  0
 15 16  1  0
 11 17  1  0
  4 18  1  0
 18 19  1  0
 19 20  1  0
  6  1  1  0
 17  8  1  0
 20  3  1  0
 16 12  1  0
  1 21  1  0
  2 22  1  0
  5 23  1  0
  7 24  1  0
  7 25  1  0
  9 26  1  0
  9 27  1  0
 10 28  1  0
 10 29  1  0
 11 30  1  0
 13 31  1  0
 13 32  1  0
 14 33  1  0
 14 34  1  0
 15 35  1  0
 15 36  1  0
 16 37  1  0
 16 38  1  0
 17 39  1  0
 17 40  1  0
 18 41  1  0
 18 42  1  0
 19 43  1  0
 20 44  1  0
 20 45  1  0
M  END
>  <Energy>  (1084) 
1474.6154774687279

>  <compound_id>  (1084) 
66581

>  <target_id>  (1084) 
1

>  <reference_id>  (1084) 
146

>  <inspiration_ids>  (1084) 
[53, 146]

>  <energy_score>  (1084) 
1386.2804737804881

>  <distance_score>  (1084) 
4.897196289118403

>  <path>  (1084) 
/opt/xchem-fragalysis-2/maxwin/BulkDock/SCRATCH/511022/C66581-P146/C66581-P146.minimised.mol

>  <scratch_subdir>  (1084) 
/opt/xchem-fragalysis-2/maxwin/BulkDock/SCRATCH/511022/C66581-P146

>  <fragmenstein_runtime>  (1084) 
5.891127824783325

>  <fragmenstein_outcome>  (1084) 
too moved

>  <fragmenstein_mode>  (1084) 
expansion

>  <fragmenstein_error>  (1084) 


$$$$
C66582-P53
     RDKit          3D

 41 44  0  0  0  0  0  0  0  0999 V2000
   12.0213    4.9599   20.6554 O   0  0  0  0  0  0  0  0  0  0  0  0
   12.2197    4.6277   21.7930 C   0  0  0  0  0  0  0  0  0  0  0  0
   11.1011    4.7847   22.7856 C   0  0  0  0  0  0  0  0  0  0  0  0
   10.9865    4.4274   24.1346 C   0  0  0  0  0  0  0  0  0  0  0  0
    9.7501    4.8468   24.6997 C   0  0  0  0  0  0  0  0  0  0  0  0
    8.9723    5.5009   23.7998 C   0  0  0  0  0  0  0  0  0  0  0  0
    9.6347    5.6071   22.2707 S   0  0  0  0  0  0  0  0  0  0  0  0
    7.7152    5.9868   24.3946 C   0  0  0  0  0  0  0  0  0  0  0  0
    7.6934    5.3134   25.7367 N   0  0  0  0  0  0  0  0  0  0  0  0
    9.0812    4.8044   26.0201 C   0  0  0  0  0  0  0  0  0  0  0  0
   13.4217    4.1677   22.4325 N   0  0  0  0  0  0  0  0  0  0  0  0
   13.5134    2.6665   22.3512 C   0  0  0  0  0  0  0  0  0  0  0  0
   14.0613    2.1323   21.0464 C   0  0  0  0  0  0  0  0  0  0  0  0
   15.3645    2.8251   21.1028 C   0  0  0  0  0  0  0  0  0  0  0  0
   15.9865    2.9916   19.7817 N   0  0  0  0  0  0  0  0  0  0  0  0
   16.4387    1.7258   19.1815 C   0  0  0  0  0  0  0  0  0  0  0  0
   17.3378    2.1779   18.0394 C   0  0  0  0  0  0  0  0  0  0  0  0
   17.8386    3.5558   18.4610 C   0  0  0  0  0  0  0  0  0  0  0  0
   17.1854    3.8314   19.8097 C   0  0  0  0  0  0  0  0  0  0  0  0
   14.8656    4.0600   21.9028 C   0  0  0  0  0  0  0  0  0  0  0  0
   11.7728    3.9183   24.6773 H   0  0  0  0  0  0  0  0  0  0  0  0
    7.7382    7.0718   24.5375 H   0  0  0  0  0  0  0  0  0  0  0  0
    6.8287    5.7183   23.8156 H   0  0  0  0  0  0  0  0  0  0  0  0
    7.1004    4.4910   25.6374 H   0  0  0  0  0  0  0  0  0  0  0  0
    9.5743    5.4715   26.7338 H   0  0  0  0  0  0  0  0  0  0  0  0
    9.0377    3.7924   26.4327 H   0  0  0  0  0  0  0  0  0  0  0  0
   14.0669    2.2999   23.2328 H   0  0  0  0  0  0  0  0  0  0  0  0
   12.4974    2.2668   22.4755 H   0  0  0  0  0  0  0  0  0  0  0  0
   14.1582    1.0435   21.0385 H   0  0  0  0  0  0  0  0  0  0  0  0
   13.4498    2.4663   20.2045 H   0  0  0  0  0  0  0  0  0  0  0  0
   16.0569    2.2727   21.7558 H   0  0  0  0  0  0  0  0  0  0  0  0
   15.6080    1.1138   18.8194 H   0  0  0  0  0  0  0  0  0  0  0  0
   17.0213    1.1313   19.8969 H   0  0  0  0  0  0  0  0  0  0  0  0
   18.1624    1.4776   17.8737 H   0  0  0  0  0  0  0  0  0  0  0  0
   16.7696    2.2593   17.1055 H   0  0  0  0  0  0  0  0  0  0  0  0
   18.9306    3.5843   18.5331 H   0  0  0  0  0  0  0  0  0  0  0  0
   17.5315    4.3034   17.7202 H   0  0  0  0  0  0  0  0  0  0  0  0
   17.8653    3.5349   20.6186 H   0  0  0  0  0  0  0  0  0  0  0  0
   16.9502    4.8939   19.9238 H   0  0  0  0  0  0  0  0  0  0  0  0
   14.9748    4.9559   21.2767 H   0  0  0  0  0  0  0  0  0  0  0  0
   15.5227    4.2285   22.7690 H   0  0  0  0  0  0  0  0  0  0  0  0
  1  2  2  0
  2  3  1  0
  3  4  2  0
  4  5  1  0
  5  6  2  0
  6  7  1  0
  6  8  1  0
  8  9  1  0
  9 10  1  0
  2 11  1  0
 11 12  1  0
 12 13  1  0
 13 14  1  0
 14 15  1  0
 15 16  1  0
 16 17  1  0
 17 18  1  0
 18 19  1  0
 14 20  1  0
  7  3  1  0
 20 11  1  0
 10  5  1  0
 19 15  1  0
  4 21  1  0
  8 22  1  0
  8 23  1  0
  9 24  1  0
 10 25  1  0
 10 26  1  0
 12 27  1  0
 12 28  1  0
 13 29  1  0
 13 30  1  0
 14 31  1  0
 16 32  1  0
 16 33  1  0
 17 34  1  0
 17 35  1  0
 18 36  1  0
 18 37  1  0
 19 38  1  0
 19 39  1  0
 20 40  1  0
 20 41  1  0
M  END
>  <Energy>  (1085) 
108.44725909824334

>  <compound_id>  (1085) 
66582

>  <target_id>  (1085) 
1

>  <reference_id>  (1085) 
53

>  <inspiration_ids>  (1085) 
[53, 146]

>  <energy_score>  (1085) 
4.471133013736775

>  <distance_score>  (1085) 
7.379128815719843

>  <path>  (1085) 
/opt/xchem-fragalysis-2/maxwin/BulkDock/SCRATCH/511022/C66582-P53/C66582-P53.minimised.mol

>  <scratch_subdir>  (1085) 
/opt/xchem-fragalysis-2/maxwin/BulkDock/SCRATCH/511022/C66582-P53

>  <fragmenstein_runtime>  (1085) 
3.293243169784546

>  <fragmenstein_outcome>  (1085) 
too moved

>  <fragmenstein_mode>  (1085) 
expansion

>  <fragmenstein_error>  (1085) 


$$$$
C66582-P146
     RDKit          3D

 41 44  0  0  0  0  0  0  0  0999 V2000
   11.5475    7.2650   21.5372 O   0  0  0  0  0  0  0  0  0  0  0  0
   11.7356    6.1076   21.8083 C   0  0  0  0  0  0  0  0  0  0  0  0
   10.7870    5.5481   22.8256 C   0  0  0  0  0  0  0  0  0  0  0  0
    9.5757    6.1567   23.2040 C   0  0  0  0  0  0  0  0  0  0  0  0
    8.9215    5.4663   24.2468 C   0  0  0  0  0  0  0  0  0  0  0  0
    9.6374    4.3846   24.6436 C   0  0  0  0  0  0  0  0  0  0  0  0
   11.0289    4.1012   23.7476 S   0  0  0  0  0  0  0  0  0  0  0  0
    9.0133    3.7002   25.7901 C   0  0  0  0  0  0  0  0  0  0  0  0
    7.7052    4.4135   25.9493 N   0  0  0  0  0  0  0  0  0  0  0  0
    7.6947    5.6183   25.0569 C   0  0  0  0  0  0  0  0  0  0  0  0
   12.6573    5.1571   21.2454 N   0  0  0  0  0  0  0  0  0  0  0  0
   13.9582    5.1792   22.0043 C   0  0  0  0  0  0  0  0  0  0  0  0
   14.9710    4.1757   21.4762 C   0  0  0  0  0  0  0  0  0  0  0  0
   15.0699    4.7637   20.1170 C   0  0  0  0  0  0  0  0  0  0  0  0
   15.5167    3.8634   19.0383 N   0  0  0  0  0  0  0  0  0  0  0  0
   16.8832    3.3371   19.2218 C   0  0  0  0  0  0  0  0  0  0  0  0
   17.2058    2.7585   17.8519 C   0  0  0  0  0  0  0  0  0  0  0  0
   16.4697    3.6641   16.8733 C   0  0  0  0  0  0  0  0  0  0  0  0
   15.5747    4.5514   17.7316 C   0  0  0  0  0  0  0  0  0  0  0  0
   13.6103    5.2764   20.0518 C   0  0  0  0  0  0  0  0  0  0  0  0
    9.2224    7.0735   22.7454 H   0  0  0  0  0  0  0  0  0  0  0  0
    9.6164    3.8256   26.6956 H   0  0  0  0  0  0  0  0  0  0  0  0
    8.8440    2.6351   25.6149 H   0  0  0  0  0  0  0  0  0  0  0  0
    7.6271    4.7287   26.9142 H   0  0  0  0  0  0  0  0  0  0  0  0
    7.7285    6.5332   25.6567 H   0  0  0  0  0  0  0  0  0  0  0  0
    6.7919    5.6127   24.4400 H   0  0  0  0  0  0  0  0  0  0  0  0
   14.3486    6.2110   22.0730 H   0  0  0  0  0  0  0  0  0  0  0  0
   13.7299    4.9119   23.0429 H   0  0  0  0  0  0  0  0  0  0  0  0
   14.5613    3.1598   21.4871 H   0  0  0  0  0  0  0  0  0  0  0  0
   15.9156    4.1938   22.0266 H   0  0  0  0  0  0  0  0  0  0  0  0
   15.7388    5.6371   20.1504 H   0  0  0  0  0  0  0  0  0  0  0  0
   17.5902    4.1382   19.4716 H   0  0  0  0  0  0  0  0  0  0  0  0
   16.9269    2.5694   20.0003 H   0  0  0  0  0  0  0  0  0  0  0  0
   18.2825    2.7315   17.6595 H   0  0  0  0  0  0  0  0  0  0  0  0
   16.8211    1.7348   17.7696 H   0  0  0  0  0  0  0  0  0  0  0  0
   17.1720    4.2702   16.2910 H   0  0  0  0  0  0  0  0  0  0  0  0
   15.8837    3.0632   16.1698 H   0  0  0  0  0  0  0  0  0  0  0  0
   16.0291    5.5463   17.8220 H   0  0  0  0  0  0  0  0  0  0  0  0
   14.5813    4.6647   17.2865 H   0  0  0  0  0  0  0  0  0  0  0  0
   13.6056    6.3323   19.7387 H   0  0  0  0  0  0  0  0  0  0  0  0
   13.0681    4.7555   19.2506 H   0  0  0  0  0  0  0  0  0  0  0  0
  1  2  2  0
  2  3  1  0
  3  4  2  0
  4  5  1  0
  5  6  2  0
  6  7  1  0
  6  8  1  0
  8  9  1  0
  9 10  1  0
  2 11  1  0
 11 12  1  0
 12 13  1  0
 13 14  1  0
 14 15  1  0
 15 16  1  0
 16 17  1  0
 17 18  1  0
 18 19  1  0
 14 20  1  0
  7  3  1  0
 20 11  1  0
 10  5  1  0
 19 15  1  0
  4 21  1  0
  8 22  1  0
  8 23  1  0
  9 24  1  0
 10 25  1  0
 10 26  1  0
 12 27  1  0
 12 28  1  0
 13 29  1  0
 13 30  1  0
 14 31  1  0
 16 32  1  0
 16 33  1  0
 17 34  1  0
 17 35  1  0
 18 36  1  0
 18 37  1  0
 19 38  1  0
 19 39  1  0
 20 40  1  0
 20 41  1  0
M  END
>  <Energy>  (1086) 
109.52270025245343

>  <compound_id>  (1086) 
66582

>  <target_id>  (1086) 
1

>  <reference_id>  (1086) 
146

>  <inspiration_ids>  (1086) 
[53, 146]

>  <energy_score>  (1086) 
5.546574167947526

>  <distance_score>  (1086) 
7.789405799208871

>  <path>  (1086) 
/opt/xchem-fragalysis-2/maxwin/BulkDock/SCRATCH/511022/C66582-P146/C66582-P146.minimised.mol

>  <scratch_subdir>  (1086) 
/opt/xchem-fragalysis-2/maxwin/BulkDock/SCRATCH/511022/C66582-P146

>  <fragmenstein_runtime>  (1086) 
3.8316988945007324

>  <fragmenstein_outcome>  (1086) 
too moved

>  <fragmenstein_mode>  (1086) 
expansion

>  <fragmenstein_error>  (1086) 


$$$$
C66586-P53
     RDKit          3D

 46 49  0  0  0  0  0  0  0  0999 V2000
    5.0855   -1.4305   22.3797 O   0  0  0  0  0  0  0  0  0  0  0  0
    5.5407   -2.4010   22.9504 C   0  0  0  0  0  0  0  0  0  0  0  0
    6.8462   -3.3938   22.5471 N   0  0  0  0  0  0  0  0  0  0  0  0
    8.2607   -3.2557   21.0717 C   0  0  0  0  0  0  0  0  0  0  0  0
   10.4721   -3.2178   21.6970 C   0  0  0  0  0  0  0  0  0  0  0  0
   11.4546   -4.3247   21.1802 C   0  0  0  0  0  0  0  0  0  0  0  0
   12.8327   -4.4751   21.3818 C   0  0  0  0  0  0  0  0  0  0  0  0
   13.3489   -3.7575   22.4011 C   0  0  0  0  0  0  0  0  0  0  0  0
   12.4834   -3.1823   23.3201 C   0  0  0  0  0  0  0  0  0  0  0  0
   11.0819   -3.0732   23.1163 C   0  0  0  0  0  0  0  0  0  0  0  0
   13.3081   -2.5799   24.4060 C   0  0  0  0  0  0  0  0  0  0  0  0
   14.6859   -2.4867   23.8397 N   0  0  0  0  0  0  0  0  0  0  0  0
   14.7573   -3.5547   22.8140 C   0  0  0  0  0  0  0  0  0  0  0  0
    4.8988   -2.8455   24.5637 C   0  0  0  0  0  0  0  0  0  0  0  0
    4.3237   -3.9614   25.4106 C   0  0  0  0  0  0  0  0  0  0  0  0
    4.0512   -3.3119   26.7816 C   0  0  0  0  0  0  0  0  0  0  0  0
    4.4359   -1.8293   26.6551 C   0  0  0  0  0  0  0  0  0  0  0  0
    3.5745   -0.9140   27.5058 C   0  0  0  0  0  0  0  0  0  0  0  0
    3.1421    0.3264   27.0357 C   0  0  0  0  0  0  0  0  0  0  0  0
    2.3799    1.1437   27.8665 C   0  0  0  0  0  0  0  0  0  0  0  0
    2.0794    0.7155   29.1515 C   0  0  0  0  0  0  0  0  0  0  0  0
    2.5635   -0.5153   29.5561 C   0  0  0  0  0  0  0  0  0  0  0  0
    3.3088   -1.3281   28.7747 N   0  0  0  0  0  0  0  0  0  0  0  0
    4.3850   -1.6034   25.2062 N   0  0  0  0  0  0  0  0  0  0  0  0
    6.9051   -4.1808   23.2114 H   0  0  0  0  0  0  0  0  0  0  0  0
    7.7369   -4.2384   20.9335 H   0  0  0  0  0  0  0  0  0  0  0  0
    8.4780   -4.0494   20.1888 H   0  0  0  0  0  0  0  0  0  0  0  0
   11.0567   -5.1798   20.6132 H   0  0  0  0  0  0  0  0  0  0  0  0
   13.4237   -5.1569   20.7831 H   0  0  0  0  0  0  0  0  0  0  0  0
   10.5618   -2.6403   23.9681 H   0  0  0  0  0  0  0  0  0  0  0  0
   12.9541   -1.5831   24.6866 H   0  0  0  0  0  0  0  0  0  0  0  0
   13.3106   -3.2280   25.2886 H   0  0  0  0  0  0  0  0  0  0  0  0
   14.7028   -1.6034   23.3263 H   0  0  0  0  0  0  0  0  0  0  0  0
   15.3901   -3.2380   21.9795 H   0  0  0  0  0  0  0  0  0  0  0  0
   15.1662   -4.4686   23.2576 H   0  0  0  0  0  0  0  0  0  0  0  0
    5.9266   -2.8793   24.9779 H   0  0  0  0  0  0  0  0  0  0  0  0
    5.0196   -4.8026   25.5084 H   0  0  0  0  0  0  0  0  0  0  0  0
    3.3836   -4.3597   25.0488 H   0  0  0  0  0  0  0  0  0  0  0  0
    2.9976   -3.4523   27.0500 H   0  0  0  0  0  0  0  0  0  0  0  0
    4.6484   -3.7997   27.5609 H   0  0  0  0  0  0  0  0  0  0  0  0
    5.4736   -1.6982   26.9907 H   0  0  0  0  0  0  0  0  0  0  0  0
    3.3793    0.6543   26.0283 H   0  0  0  0  0  0  0  0  0  0  0  0
    2.0207    2.1040   27.5081 H   0  0  0  0  0  0  0  0  0  0  0  0
    1.4831    1.3263   29.8189 H   0  0  0  0  0  0  0  0  0  0  0  0
    2.3595   -0.8944   30.5529 H   0  0  0  0  0  0  0  0  0  0  0  0
    4.9288   -0.7955   24.9068 H   0  0  0  0  0  0  0  0  0  0  0  0
  1  2  2  0
  2  3  1  0
  3  4  1  0
  4  5  1  0
  5  6  2  0
  6  7  1  0
  7  8  2  0
  8  9  1  0
  9 10  2  0
  9 11  1  0
 11 12  1  0
 12 13  1  0
  2 14  1  0
 14 15  1  0
 15 16  1  0
 16 17  1  0
 17 18  1  0
 18 19  2  0
 19 20  1  0
 20 21  2  0
 21 22  1  0
 22 23  2  0
 17 24  1  0
 10  5  1  0
 24 14  1  0
 13  8  1  0
 23 18  1  0
  3 25  1  0
  4 26  1  0
  4 27  1  0
  6 28  1  0
  7 29  1  0
 10 30  1  0
 11 31  1  0
 11 32  1  0
 12 33  1  0
 13 34  1  0
 13 35  1  0
 14 36  1  0
 15 37  1  0
 15 38  1  0
 16 39  1  0
 16 40  1  0
 17 41  1  0
 19 42  1  0
 20 43  1  0
 21 44  1  0
 22 45  1  0
 24 46  1  0
M  END
>  <Energy>  (1087) 
599.4385174347201

>  <compound_id>  (1087) 
66586

>  <target_id>  (1087) 
1

>  <reference_id>  (1087) 
53

>  <inspiration_ids>  (1087) 
[53, 146]

>  <energy_score>  (1087) 
492.41104827267884

>  <distance_score>  (1087) 
8.412130891513772

>  <path>  (1087) 
/opt/xchem-fragalysis-2/maxwin/BulkDock/SCRATCH/511022/C66586-P53/C66586-P53.minimised.mol

>  <scratch_subdir>  (1087) 
/opt/xchem-fragalysis-2/maxwin/BulkDock/SCRATCH/511022/C66586-P53

>  <fragmenstein_runtime>  (1087) 
16.42169713973999

>  <fragmenstein_outcome>  (1087) 
too moved

>  <fragmenstein_mode>  (1087) 
expansion

>  <fragmenstein_error>  (1087) 


$$$$
C66586-P146
     RDKit          3D

 46 49  0  0  0  0  0  0  0  0999 V2000
    4.0794    4.4292   22.2807 O   0  0  0  0  0  0  0  0  0  0  0  0
    3.6843    3.3941   22.8126 C   0  0  0  0  0  0  0  0  0  0  0  0
    4.1788    1.8133   22.5897 N   0  0  0  0  0  0  0  0  0  0  0  0
    5.6540    1.0622   21.5091 C   0  0  0  0  0  0  0  0  0  0  0  0
    7.5140    1.3733   20.6775 C   0  0  0  0  0  0  0  0  0  0  0  0
    8.2899    2.6218   20.7974 C   0  0  0  0  0  0  0  0  0  0  0  0
    9.1988    3.0983   19.8304 C   0  0  0  0  0  0  0  0  0  0  0  0
    9.3205    2.4237   18.6384 C   0  0  0  0  0  0  0  0  0  0  0  0
    8.6900    1.2031   18.4535 C   0  0  0  0  0  0  0  0  0  0  0  0
    7.8649    0.6374   19.4757 C   0  0  0  0  0  0  0  0  0  0  0  0
    8.9099    0.8032   17.0102 C   0  0  0  0  0  0  0  0  0  0  0  0
    9.7284    1.8569   16.3737 N   0  0  0  0  0  0  0  0  0  0  0  0
    9.9995    2.8822   17.3915 C   0  0  0  0  0  0  0  0  0  0  0  0
    2.6487    3.5739   23.9421 C   0  0  0  0  0  0  0  0  0  0  0  0
    2.7146    2.7484   25.2070 C   0  0  0  0  0  0  0  0  0  0  0  0
    1.4126    3.0779   25.9222 C   0  0  0  0  0  0  0  0  0  0  0  0
    0.6167    3.9794   24.9645 C   0  0  0  0  0  0  0  0  0  0  0  0
   -0.8593    3.6672   24.9490 C   0  0  0  0  0  0  0  0  0  0  0  0
   -1.5560    3.6372   26.1546 C   0  0  0  0  0  0  0  0  0  0  0  0
   -2.9227    3.4504   26.1191 C   0  0  0  0  0  0  0  0  0  0  0  0
   -3.5603    3.3867   24.8928 C   0  0  0  0  0  0  0  0  0  0  0  0
   -2.7991    3.4183   23.7392 C   0  0  0  0  0  0  0  0  0  0  0  0
   -1.4554    3.4846   23.7387 N   0  0  0  0  0  0  0  0  0  0  0  0
    1.2620    3.8749   23.6385 N   0  0  0  0  0  0  0  0  0  0  0  0
    3.7058    1.2141   23.2454 H   0  0  0  0  0  0  0  0  0  0  0  0
    6.1136    2.4480   21.1832 H   0  0  0  0  0  0  0  0  0  0  0  0
    5.7332    0.8549   22.4582 H   0  0  0  0  0  0  0  0  0  0  0  0
    8.1010    3.3597   21.5795 H   0  0  0  0  0  0  0  0  0  0  0  0
    9.6740    4.0659   19.9702 H   0  0  0  0  0  0  0  0  0  0  0  0
    7.3016   -0.2477   19.2310 H   0  0  0  0  0  0  0  0  0  0  0  0
    7.9813    0.7252   16.4533 H   0  0  0  0  0  0  0  0  0  0  0  0
    9.4258   -0.1461   16.8952 H   0  0  0  0  0  0  0  0  0  0  0  0
   10.6079    1.4803   16.0269 H   0  0  0  0  0  0  0  0  0  0  0  0
   11.0721    3.0032   17.5568 H   0  0  0  0  0  0  0  0  0  0  0  0
    9.5813    3.8379   17.0596 H   0  0  0  0  0  0  0  0  0  0  0  0
    3.0070    4.5524   24.3181 H   0  0  0  0  0  0  0  0  0  0  0  0
    3.5699    3.0440   25.8269 H   0  0  0  0  0  0  0  0  0  0  0  0
    2.8317    1.6829   25.0294 H   0  0  0  0  0  0  0  0  0  0  0  0
    0.8836    2.1635   26.2053 H   0  0  0  0  0  0  0  0  0  0  0  0
    1.6235    3.6169   26.8543 H   0  0  0  0  0  0  0  0  0  0  0  0
    0.7219    5.0230   25.2914 H   0  0  0  0  0  0  0  0  0  0  0  0
   -1.0582    3.7811   27.1077 H   0  0  0  0  0  0  0  0  0  0  0  0
   -3.4963    3.4181   27.0372 H   0  0  0  0  0  0  0  0  0  0  0  0
   -4.6378    3.2983   24.8371 H   0  0  0  0  0  0  0  0  0  0  0  0
   -3.2734    3.3687   22.7630 H   0  0  0  0  0  0  0  0  0  0  0  0
    0.7737    3.1900   23.0794 H   0  0  0  0  0  0  0  0  0  0  0  0
  1  2  2  0
  2  3  1  0
  3  4  1  0
  4  5  1  0
  5  6  2  0
  6  7  1  0
  7  8  2  0
  8  9  1  0
  9 10  2  0
  9 11  1  0
 11 12  1  0
 12 13  1  0
  2 14  1  0
 14 15  1  0
 15 16  1  0
 16 17  1  0
 17 18  1  0
 18 19  2  0
 19 20  1  0
 20 21  2  0
 21 22  1  0
 22 23  2  0
 17 24  1  0
 10  5  1  0
 24 14  1  0
 13  8  1  0
 23 18  1  0
  3 25  1  0
  4 26  1  0
  4 27  1  0
  6 28  1  0
  7 29  1  0
 10 30  1  0
 11 31  1  0
 11 32  1  0
 12 33  1  0
 13 34  1  0
 13 35  1  0
 14 36  1  0
 15 37  1  0
 15 38  1  0
 16 39  1  0
 16 40  1  0
 17 41  1  0
 19 42  1  0
 20 43  1  0
 21 44  1  0
 22 45  1  0
 24 46  1  0
M  END
>  <Energy>  (1088) 
417.4863379322839

>  <compound_id>  (1088) 
66586

>  <target_id>  (1088) 
1

>  <reference_id>  (1088) 
146

>  <inspiration_ids>  (1088) 
[53, 146]

>  <energy_score>  (1088) 
310.45886877025464

>  <distance_score>  (1088) 
6.6102570069766475

>  <path>  (1088) 
/opt/xchem-fragalysis-2/maxwin/BulkDock/SCRATCH/511022/C66586-P146/C66586-P146.minimised.mol

>  <scratch_subdir>  (1088) 
/opt/xchem-fragalysis-2/maxwin/BulkDock/SCRATCH/511022/C66586-P146

>  <fragmenstein_runtime>  (1088) 
14.208817958831787

>  <fragmenstein_outcome>  (1088) 
too moved

>  <fragmenstein_mode>  (1088) 
expansion

>  <fragmenstein_error>  (1088) 


$$$$
C66589-P53
     RDKit          3D

 38 40  0  0  0  0  0  0  0  0999 V2000
   14.3653    4.4200   22.0983 O   0  0  0  0  0  0  0  0  0  0  0  0
   14.6590    3.2304   22.0918 C   0  0  0  0  0  0  0  0  0  0  0  0
   15.8595    2.7980   22.5378 O   0  0  0  0  0  0  0  0  0  0  0  0
   13.7148    2.1334   21.5610 C   0  0  0  0  0  0  0  0  0  0  0  0
   12.3378    2.2365   22.3247 C   0  0  0  0  0  0  0  0  0  0  0  0
   12.4276    1.1731   23.4096 C   0  0  0  0  0  0  0  0  0  0  0  0
   13.5674    0.1865   22.9469 C   0  0  0  0  0  0  0  0  0  0  0  0
   14.2492    0.7704   21.7980 N   0  0  0  0  0  0  0  0  0  0  0  0
   15.2606    0.1485   21.0242 C   0  0  0  0  0  0  0  0  0  0  0  0
   16.4065    0.3659   21.4491 O   0  0  0  0  0  0  0  0  0  0  0  0
   15.1828   -0.6347   19.6989 C   0  0  0  0  0  0  0  0  0  0  0  0
   15.9557   -0.0295   18.6890 C   0  0  0  0  0  0  0  0  0  0  0  0
   15.9527   -0.4436   17.3438 C   0  0  0  0  0  0  0  0  0  0  0  0
   15.1357   -1.4837   16.9179 C   0  0  0  0  0  0  0  0  0  0  0  0
   14.4372   -2.2186   17.8919 C   0  0  0  0  0  0  0  0  0  0  0  0
   14.5349   -1.8345   19.2990 C   0  0  0  0  0  0  0  0  0  0  0  0
   13.5409   -3.3361   17.3794 C   0  0  0  0  0  0  0  0  0  0  0  0
   12.8967   -2.9940   16.0880 N   0  0  0  0  0  0  0  0  0  0  0  0
   13.9479   -2.8157   15.0759 C   0  0  0  0  0  0  0  0  0  0  0  0
   14.9043   -1.6736   15.4329 C   0  0  0  0  0  0  0  0  0  0  0  0
   16.0046    1.8320   22.3814 H   0  0  0  0  0  0  0  0  0  0  0  0
   13.6220    2.3016   20.4839 H   0  0  0  0  0  0  0  0  0  0  0  0
   11.5061    2.0089   21.6533 H   0  0  0  0  0  0  0  0  0  0  0  0
   12.1470    3.2294   22.7435 H   0  0  0  0  0  0  0  0  0  0  0  0
   12.7325    1.6353   24.3562 H   0  0  0  0  0  0  0  0  0  0  0  0
   11.4765    0.6681   23.5933 H   0  0  0  0  0  0  0  0  0  0  0  0
   14.3142    0.1435   23.7510 H   0  0  0  0  0  0  0  0  0  0  0  0
   13.3212   -0.8534   22.7617 H   0  0  0  0  0  0  0  0  0  0  0  0
   16.5585    0.8471   18.9357 H   0  0  0  0  0  0  0  0  0  0  0  0
   16.5254    0.1337   16.6199 H   0  0  0  0  0  0  0  0  0  0  0  0
   14.0432   -2.4411   20.0558 H   0  0  0  0  0  0  0  0  0  0  0  0
   12.7609   -3.5339   18.1133 H   0  0  0  0  0  0  0  0  0  0  0  0
   14.1318   -4.2558   17.2877 H   0  0  0  0  0  0  0  0  0  0  0  0
   12.3291   -3.8007   15.8163 H   0  0  0  0  0  0  0  0  0  0  0  0
   13.4900   -2.6196   14.0998 H   0  0  0  0  0  0  0  0  0  0  0  0
   14.5129   -3.7512   14.9700 H   0  0  0  0  0  0  0  0  0  0  0  0
   15.8646   -1.8320   14.9284 H   0  0  0  0  0  0  0  0  0  0  0  0
   14.4753   -0.7382   15.0495 H   0  0  0  0  0  0  0  0  0  0  0  0
  1  2  2  0
  2  3  1  0
  2  4  1  0
  4  5  1  0
  5  6  1  0
  6  7  1  0
  7  8  1  0
  8  9  1  0
  9 10  2  0
  9 11  1  0
 11 12  2  0
 12 13  1  0
 13 14  2  0
 14 15  1  0
 15 16  2  0
 15 17  1  0
 17 18  1  0
 18 19  1  0
 19 20  1  0
  8  4  1  0
 16 11  1  0
 20 14  1  0
  3 21  1  0
  4 22  1  0
  5 23  1  0
  5 24  1  0
  6 25  1  0
  6 26  1  0
  7 27  1  0
  7 28  1  0
 12 29  1  0
 13 30  1  0
 16 31  1  0
 17 32  1  0
 17 33  1  0
 18 34  1  0
 19 35  1  0
 19 36  1  0
 20 37  1  0
 20 38  1  0
M  END
>  <Energy>  (1089) 
95.444839927753335

>  <compound_id>  (1089) 
66589

>  <target_id>  (1089) 
1

>  <reference_id>  (1089) 
53

>  <inspiration_ids>  (1089) 
[53, 146]

>  <energy_score>  (1089) 
5.066428902214284

>  <distance_score>  (1089) 
8.160450766746944

>  <path>  (1089) 
/opt/xchem-fragalysis-2/maxwin/BulkDock/SCRATCH/511022/C66589-P53/C66589-P53.minimised.mol

>  <scratch_subdir>  (1089) 
/opt/xchem-fragalysis-2/maxwin/BulkDock/SCRATCH/511022/C66589-P53

>  <fragmenstein_runtime>  (1089) 
2.5909619331359863

>  <fragmenstein_outcome>  (1089) 
too moved

>  <fragmenstein_mode>  (1089) 
expansion

>  <fragmenstein_error>  (1089) 


$$$$
C66589-P146
     RDKit          3D

 38 40  0  0  0  0  0  0  0  0999 V2000
    7.2299    6.2602   16.6050 O   0  0  0  0  0  0  0  0  0  0  0  0
    7.9923    5.3088   16.5101 C   0  0  0  0  0  0  0  0  0  0  0  0
    8.7490    5.1602   15.4090 O   0  0  0  0  0  0  0  0  0  0  0  0
    8.1033    4.1604   17.5181 C   0  0  0  0  0  0  0  0  0  0  0  0
    7.7747    4.6881   18.9642 C   0  0  0  0  0  0  0  0  0  0  0  0
    8.3999    3.6783   19.9135 C   0  0  0  0  0  0  0  0  0  0  0  0
    9.4590    2.9414   19.0502 C   0  0  0  0  0  0  0  0  0  0  0  0
    9.3879    3.4846   17.7078 N   0  0  0  0  0  0  0  0  0  0  0  0
   10.4159    3.3600   16.7651 C   0  0  0  0  0  0  0  0  0  0  0  0
   11.2405    4.2862   16.7959 O   0  0  0  0  0  0  0  0  0  0  0  0
   10.7177    2.1914   15.8017 C   0  0  0  0  0  0  0  0  0  0  0  0
   11.8589    2.3786   14.9820 C   0  0  0  0  0  0  0  0  0  0  0  0
   12.5640    1.3426   14.3416 C   0  0  0  0  0  0  0  0  0  0  0  0
   12.1290    0.0422   14.4635 C   0  0  0  0  0  0  0  0  0  0  0  0
   10.9218   -0.1847   15.1462 C   0  0  0  0  0  0  0  0  0  0  0  0
   10.2006    0.8879   15.7957 C   0  0  0  0  0  0  0  0  0  0  0  0
   10.4302   -1.5964   15.2404 C   0  0  0  0  0  0  0  0  0  0  0  0
   11.5042   -2.5939   15.2400 N   0  0  0  0  0  0  0  0  0  0  0  0
   12.3084   -2.4318   14.0257 C   0  0  0  0  0  0  0  0  0  0  0  0
   13.0064   -1.0784   13.9768 C   0  0  0  0  0  0  0  0  0  0  0  0
    8.6306    5.9865   14.8967 H   0  0  0  0  0  0  0  0  0  0  0  0
    7.3851    3.4011   17.2162 H   0  0  0  0  0  0  0  0  0  0  0  0
    6.7052    4.8437   19.1228 H   0  0  0  0  0  0  0  0  0  0  0  0
    8.2615    5.6611   19.1133 H   0  0  0  0  0  0  0  0  0  0  0  0
    8.8564    4.1622   20.7824 H   0  0  0  0  0  0  0  0  0  0  0  0
    7.6722    2.9585   20.2817 H   0  0  0  0  0  0  0  0  0  0  0  0
    9.1917    1.8834   18.9826 H   0  0  0  0  0  0  0  0  0  0  0  0
   10.4730    3.0431   19.4472 H   0  0  0  0  0  0  0  0  0  0  0  0
   12.3127    3.3710   14.9334 H   0  0  0  0  0  0  0  0  0  0  0  0
   13.4923    1.5799   13.8286 H   0  0  0  0  0  0  0  0  0  0  0  0
    9.3047    0.6673   16.3680 H   0  0  0  0  0  0  0  0  0  0  0  0
    9.6835   -1.8076   14.4781 H   0  0  0  0  0  0  0  0  0  0  0  0
    9.9187   -1.6506   16.1945 H   0  0  0  0  0  0  0  0  0  0  0  0
   11.0815   -3.5234   15.2269 H   0  0  0  0  0  0  0  0  0  0  0  0
   11.6670   -2.5858   13.1566 H   0  0  0  0  0  0  0  0  0  0  0  0
   13.0647   -3.2136   13.9847 H   0  0  0  0  0  0  0  0  0  0  0  0
   13.8943   -1.1122   14.6215 H   0  0  0  0  0  0  0  0  0  0  0  0
   13.3429   -0.8788   12.9531 H   0  0  0  0  0  0  0  0  0  0  0  0
  1  2  2  0
  2  3  1  0
  2  4  1  0
  4  5  1  0
  5  6  1  0
  6  7  1  0
  7  8  1  0
  8  9  1  0
  9 10  2  0
  9 11  1  0
 11 12  2  0
 12 13  1  0
 13 14  2  0
 14 15  1  0
 15 16  2  0
 15 17  1  0
 17 18  1  0
 18 19  1  0
 19 20  1  0
  8  4  1  0
 16 11  1  0
 20 14  1  0
  3 21  1  0
  4 22  1  0
  5 23  1  0
  5 24  1  0
  6 25  1  0
  6 26  1  0
  7 27  1  0
  7 28  1  0
 12 29  1  0
 13 30  1  0
 16 31  1  0
 17 32  1  0
 17 33  1  0
 18 34  1  0
 19 35  1  0
 19 36  1  0
 20 37  1  0
 20 38  1  0
M  END
>  <Energy>  (1090) 
99.274466092418265

>  <compound_id>  (1090) 
66589

>  <target_id>  (1090) 
1

>  <reference_id>  (1090) 
146

>  <inspiration_ids>  (1090) 
[53, 146]

>  <energy_score>  (1090) 
8.896055066884344

>  <distance_score>  (1090) 
7.671963282812015

>  <path>  (1090) 
/opt/xchem-fragalysis-2/maxwin/BulkDock/SCRATCH/511022/C66589-P146/C66589-P146.minimised.mol

>  <scratch_subdir>  (1090) 
/opt/xchem-fragalysis-2/maxwin/BulkDock/SCRATCH/511022/C66589-P146

>  <fragmenstein_runtime>  (1090) 
3.9016942977905273

>  <fragmenstein_outcome>  (1090) 
too moved

>  <fragmenstein_mode>  (1090) 
expansion

>  <fragmenstein_error>  (1090) 


$$$$
C66590-P53
     RDKit          3D

 44 46  0  0  0  0  0  0  0  0999 V2000
    5.2778    8.1141   20.7108 C   0  0  0  0  0  0  0  0  0  0  0  0
    5.4914    6.3747   20.4228 S   0  0  0  0  0  0  0  0  0  0  0  0
    4.8553    6.0661   19.1582 O   0  0  0  0  0  0  0  0  0  0  0  0
    5.1408    5.6929   21.6519 O   0  0  0  0  0  0  0  0  0  0  0  0
    7.2520    6.2189   20.2242 C   0  0  0  0  0  0  0  0  0  0  0  0
    7.6761    4.9148   19.5403 C   0  0  0  0  0  0  0  0  0  0  0  0
    9.1559    4.6993   19.6056 C   0  0  0  0  0  0  0  0  0  0  0  0
    9.4958    4.8805   18.1394 C   0  0  0  0  0  0  0  0  0  0  0  0
    8.5512    4.1082   17.2626 N   0  0  0  0  0  0  0  0  0  0  0  0
    8.9823    4.1616   15.9003 C   0  0  0  0  0  0  0  0  0  0  0  0
    8.7091    4.9409   15.0230 O   0  0  0  0  0  0  0  0  0  0  0  0
    9.8927    3.0373   15.4828 C   0  0  0  0  0  0  0  0  0  0  0  0
   11.0918    3.3654   14.8308 C   0  0  0  0  0  0  0  0  0  0  0  0
   11.9443    2.3701   14.3384 C   0  0  0  0  0  0  0  0  0  0  0  0
   11.6000    1.0217   14.4652 C   0  0  0  0  0  0  0  0  0  0  0  0
   10.3807    0.6777   15.0802 C   0  0  0  0  0  0  0  0  0  0  0  0
    9.5337    1.6881   15.5972 C   0  0  0  0  0  0  0  0  0  0  0  0
    9.9543   -0.7674   15.1127 C   0  0  0  0  0  0  0  0  0  0  0  0
   11.0798   -1.7106   15.1524 N   0  0  0  0  0  0  0  0  0  0  0  0
   11.9694   -1.4625   14.0118 C   0  0  0  0  0  0  0  0  0  0  0  0
   12.5671   -0.0498   14.0171 C   0  0  0  0  0  0  0  0  0  0  0  0
    7.5323    4.9415   18.0107 C   0  0  0  0  0  0  0  0  0  0  0  0
    5.6231    8.6637   19.8333 H   0  0  0  0  0  0  0  0  0  0  0  0
    4.2151    8.3038   20.8754 H   0  0  0  0  0  0  0  0  0  0  0  0
    5.8495    8.3976   21.5964 H   0  0  0  0  0  0  0  0  0  0  0  0
    7.6828    6.2901   21.2291 H   0  0  0  0  0  0  0  0  0  0  0  0
    7.5930    7.0843   19.6458 H   0  0  0  0  0  0  0  0  0  0  0  0
    7.1626    4.0600   19.9875 H   0  0  0  0  0  0  0  0  0  0  0  0
    9.3857    3.6770   19.9280 H   0  0  0  0  0  0  0  0  0  0  0  0
    9.7009    5.3972   20.2474 H   0  0  0  0  0  0  0  0  0  0  0  0
    9.5707    5.9392   17.8305 H   0  0  0  0  0  0  0  0  0  0  0  0
   10.5033    4.5028   17.9582 H   0  0  0  0  0  0  0  0  0  0  0  0
   11.3549    4.4124   14.6973 H   0  0  0  0  0  0  0  0  0  0  0  0
   12.8725    2.6567   13.8505 H   0  0  0  0  0  0  0  0  0  0  0  0
    8.5744    1.4330   16.0453 H   0  0  0  0  0  0  0  0  0  0  0  0
    9.2985   -0.9766   14.2669 H   0  0  0  0  0  0  0  0  0  0  0  0
    9.3439   -0.9305   16.0023 H   0  0  0  0  0  0  0  0  0  0  0  0
   11.6159   -1.5788   16.0044 H   0  0  0  0  0  0  0  0  0  0  0  0
   12.7835   -2.1966   14.0285 H   0  0  0  0  0  0  0  0  0  0  0  0
   11.4369   -1.6404   13.0759 H   0  0  0  0  0  0  0  0  0  0  0  0
   12.9407    0.1836   13.0130 H   0  0  0  0  0  0  0  0  0  0  0  0
   13.4217   -0.0322   14.7054 H   0  0  0  0  0  0  0  0  0  0  0  0
    6.5657    4.5144   17.7212 H   0  0  0  0  0  0  0  0  0  0  0  0
    7.4932    5.9579   17.5819 H   0  0  0  0  0  0  0  0  0  0  0  0
  1  2  1  0
  2  3  2  0
  2  4  2  0
  2  5  1  0
  5  6  1  0
  6  7  1  0
  7  8  1  0
  8  9  1  0
  9 10  1  0
 10 11  2  0
 10 12  1  0
 12 13  2  0
 13 14  1  0
 14 15  2  0
 15 16  1  0
 16 17  2  0
 16 18  1  0
 18 19  1  0
 19 20  1  0
 20 21  1  0
  9 22  1  0
 22  6  1  0
 17 12  1  0
 21 15  1  0
  1 23  1  0
  1 24  1  0
  1 25  1  0
  5 26  1  0
  5 27  1  0
  6 28  1  0
  7 29  1  0
  7 30  1  0
  8 31  1  0
  8 32  1  0
 13 33  1  0
 14 34  1  0
 17 35  1  0
 18 36  1  0
 18 37  1  0
 19 38  1  0
 20 39  1  0
 20 40  1  0
 21 41  1  0
 21 42  1  0
 22 43  1  0
 22 44  1  0
M  END
>  <Energy>  (1091) 
103.42453829869578

>  <compound_id>  (1091) 
66590

>  <target_id>  (1091) 
1

>  <reference_id>  (1091) 
53

>  <inspiration_ids>  (1091) 
[53, 146]

>  <energy_score>  (1091) 
-3.0272790415311306

>  <distance_score>  (1091) 
7.671414722442405

>  <path>  (1091) 
/opt/xchem-fragalysis-2/maxwin/BulkDock/SCRATCH/511022/C66590-P53/C66590-P53.minimised.mol

>  <scratch_subdir>  (1091) 
/opt/xchem-fragalysis-2/maxwin/BulkDock/SCRATCH/511022/C66590-P53

>  <fragmenstein_runtime>  (1091) 
6.553248167037964

>  <fragmenstein_outcome>  (1091) 
too moved

>  <fragmenstein_mode>  (1091) 
expansion

>  <fragmenstein_error>  (1091) 


$$$$
C66590-P146
     RDKit          3D

 44 46  0  0  0  0  0  0  0  0999 V2000
    3.1676    5.8686   21.3154 C   0  0  0  0  0  0  0  0  0  0  0  0
    4.4038    7.0740   21.7417 S   0  0  0  0  0  0  0  0  0  0  0  0
    4.0639    7.5963   23.0513 O   0  0  0  0  0  0  0  0  0  0  0  0
    4.5711    7.9678   20.6123 O   0  0  0  0  0  0  0  0  0  0  0  0
    5.9006    6.1183   21.9317 C   0  0  0  0  0  0  0  0  0  0  0  0
    6.4717    5.6318   20.6044 C   0  0  0  0  0  0  0  0  0  0  0  0
    7.2852    6.6114   19.8208 C   0  0  0  0  0  0  0  0  0  0  0  0
    8.5578    5.7960   19.5826 C   0  0  0  0  0  0  0  0  0  0  0  0
    8.3036    4.3036   19.5271 N   0  0  0  0  0  0  0  0  0  0  0  0
    9.5220    3.6001   19.3142 C   0  0  0  0  0  0  0  0  0  0  0  0
   10.3120    3.1480   20.1016 O   0  0  0  0  0  0  0  0  0  0  0  0
    9.8371    3.2996   17.8895 C   0  0  0  0  0  0  0  0  0  0  0  0
   10.8077    4.0816   17.2611 C   0  0  0  0  0  0  0  0  0  0  0  0
   11.3341    3.6903   16.0309 C   0  0  0  0  0  0  0  0  0  0  0  0
   10.9502    2.4758   15.4487 C   0  0  0  0  0  0  0  0  0  0  0  0
    9.9598    1.6805   16.0627 C   0  0  0  0  0  0  0  0  0  0  0  0
    9.4044    2.1034   17.2899 C   0  0  0  0  0  0  0  0  0  0  0  0
    9.6080    0.3303   15.4688 C   0  0  0  0  0  0  0  0  0  0  0  0
   10.0320    0.1986   14.0825 N   0  0  0  0  0  0  0  0  0  0  0  0
   11.4384    0.5241   13.9154 C   0  0  0  0  0  0  0  0  0  0  0  0
   11.6289    2.0195   14.1746 C   0  0  0  0  0  0  0  0  0  0  0  0
    7.5639    4.6085   20.7828 C   0  0  0  0  0  0  0  0  0  0  0  0
    3.1336    5.1071   22.0966 H   0  0  0  0  0  0  0  0  0  0  0  0
    2.2048    6.3807   21.2547 H   0  0  0  0  0  0  0  0  0  0  0  0
    3.4104    5.4265   20.3487 H   0  0  0  0  0  0  0  0  0  0  0  0
    5.6516    5.2784   22.5892 H   0  0  0  0  0  0  0  0  0  0  0  0
    6.6175    6.7555   22.4611 H   0  0  0  0  0  0  0  0  0  0  0  0
    5.6786    5.2284   19.9667 H   0  0  0  0  0  0  0  0  0  0  0  0
    7.5067    7.5481   20.3414 H   0  0  0  0  0  0  0  0  0  0  0  0
    6.7931    6.8537   18.8723 H   0  0  0  0  0  0  0  0  0  0  0  0
    9.3576    6.0326   20.3063 H   0  0  0  0  0  0  0  0  0  0  0  0
    8.9784    6.0848   18.6101 H   0  0  0  0  0  0  0  0  0  0  0  0
   11.1943    4.9730   17.7470 H   0  0  0  0  0  0  0  0  0  0  0  0
   12.1088    4.2947   15.5642 H   0  0  0  0  0  0  0  0  0  0  0  0
    8.6824    1.4794   17.8104 H   0  0  0  0  0  0  0  0  0  0  0  0
   10.0703   -0.4614   16.0681 H   0  0  0  0  0  0  0  0  0  0  0  0
    8.5274    0.1809   15.5298 H   0  0  0  0  0  0  0  0  0  0  0  0
    9.7822   -0.7132   13.6878 H   0  0  0  0  0  0  0  0  0  0  0  0
   12.0605   -0.0791   14.5881 H   0  0  0  0  0  0  0  0  0  0  0  0
   11.7536    0.2957   12.8918 H   0  0  0  0  0  0  0  0  0  0  0  0
   11.2056    2.5958   13.3418 H   0  0  0  0  0  0  0  0  0  0  0  0
   12.7024    2.2369   14.2200 H   0  0  0  0  0  0  0  0  0  0  0  0
    8.2513    4.7964   21.6267 H   0  0  0  0  0  0  0  0  0  0  0  0
    7.0981    3.6634   21.0429 H   0  0  0  0  0  0  0  0  0  0  0  0
  1  2  1  0
  2  3  2  0
  2  4  2  0
  2  5  1  0
  5  6  1  0
  6  7  1  0
  7  8  1  0
  8  9  1  0
  9 10  1  0
 10 11  2  0
 10 12  1  0
 12 13  2  0
 13 14  1  0
 14 15  2  0
 15 16  1  0
 16 17  2  0
 16 18  1  0
 18 19  1  0
 19 20  1  0
 20 21  1  0
  9 22  1  0
 22  6  1  0
 17 12  1  0
 21 15  1  0
  1 23  1  0
  1 24  1  0
  1 25  1  0
  5 26  1  0
  5 27  1  0
  6 28  1  0
  7 29  1  0
  7 30  1  0
  8 31  1  0
  8 32  1  0
 13 33  1  0
 14 34  1  0
 17 35  1  0
 18 36  1  0
 18 37  1  0
 19 38  1  0
 20 39  1  0
 20 40  1  0
 21 41  1  0
 21 42  1  0
 22 43  1  0
 22 44  1  0
M  END
>  <Energy>  (1092) 
109.32405796907841

>  <compound_id>  (1092) 
66590

>  <target_id>  (1092) 
1

>  <reference_id>  (1092) 
146

>  <inspiration_ids>  (1092) 
[53, 146]

>  <energy_score>  (1092) 
2.872240628854172

>  <distance_score>  (1092) 
6.938554466605514

>  <path>  (1092) 
/opt/xchem-fragalysis-2/maxwin/BulkDock/SCRATCH/511022/C66590-P146/C66590-P146.minimised.mol

>  <scratch_subdir>  (1092) 
/opt/xchem-fragalysis-2/maxwin/BulkDock/SCRATCH/511022/C66590-P146

>  <fragmenstein_runtime>  (1092) 
6.209271669387817

>  <fragmenstein_outcome>  (1092) 
too moved

>  <fragmenstein_mode>  (1092) 
expansion

>  <fragmenstein_error>  (1092) 


$$$$
C66593-P53
     RDKit          3D

 48 50  0  0  0  0  0  0  0  0999 V2000
    6.4291    7.0519   26.3410 C   0  0  0  0  0  0  0  0  0  0  0  0
    7.5843    6.7118   25.0356 S   0  0  0  0  0  0  0  0  0  0  0  0
    6.8289    6.2291   23.8968 O   0  0  0  0  0  0  0  0  0  0  0  0
    8.4651    7.8577   24.9210 O   0  0  0  0  0  0  0  0  0  0  0  0
    8.5343    5.3491   25.6872 C   0  0  0  0  0  0  0  0  0  0  0  0
    9.4839    4.7551   24.6499 C   0  0  0  0  0  0  0  0  0  0  0  0
   10.6573    5.6259   24.2352 C   0  0  0  0  0  0  0  0  0  0  0  0
   11.5568    4.6267   23.5006 C   0  0  0  0  0  0  0  0  0  0  0  0
   11.4203    3.3490   24.2540 N   0  0  0  0  0  0  0  0  0  0  0  0
   11.3990    1.8899   23.3409 S   0  0  0  0  0  0  0  0  0  0  0  0
   11.1170    0.8524   24.3157 O   0  0  0  0  0  0  0  0  0  0  0  0
   10.5001    2.1088   22.2257 O   0  0  0  0  0  0  0  0  0  0  0  0
   13.0285    1.5498   22.6404 C   0  0  0  0  0  0  0  0  0  0  0  0
   13.5931    0.2980   22.8954 C   0  0  0  0  0  0  0  0  0  0  0  0
   14.5695   -0.2263   22.0408 C   0  0  0  0  0  0  0  0  0  0  0  0
   15.0645    0.5068   20.9473 C   0  0  0  0  0  0  0  0  0  0  0  0
   14.6453    1.8469   20.8026 C   0  0  0  0  0  0  0  0  0  0  0  0
   13.5769    2.3324   21.6151 C   0  0  0  0  0  0  0  0  0  0  0  0
   15.2394    2.8104   19.7944 C   0  0  0  0  0  0  0  0  0  0  0  0
   16.6233    2.4732   19.2410 C   0  0  0  0  0  0  0  0  0  0  0  0
   16.6567    1.3195   18.2437 C   0  0  0  0  0  0  0  0  0  0  0  0
   15.8694    0.1525   18.6148 N   0  0  0  0  0  0  0  0  0  0  0  0
   16.0254   -0.2120   20.0186 C   0  0  0  0  0  0  0  0  0  0  0  0
   10.2198    3.5114   25.1564 C   0  0  0  0  0  0  0  0  0  0  0  0
    5.8016    7.8899   26.0305 H   0  0  0  0  0  0  0  0  0  0  0  0
    5.8139    6.1659   26.5079 H   0  0  0  0  0  0  0  0  0  0  0  0
    6.9844    7.3145   27.2432 H   0  0  0  0  0  0  0  0  0  0  0  0
    9.0773    5.7175   26.5634 H   0  0  0  0  0  0  0  0  0  0  0  0
    7.8146    4.5911   26.0133 H   0  0  0  0  0  0  0  0  0  0  0  0
    8.9279    4.5088   23.7387 H   0  0  0  0  0  0  0  0  0  0  0  0
   11.1755    6.0350   25.1110 H   0  0  0  0  0  0  0  0  0  0  0  0
   10.3724    6.4559   23.5828 H   0  0  0  0  0  0  0  0  0  0  0  0
   12.5992    4.9570   23.5006 H   0  0  0  0  0  0  0  0  0  0  0  0
   11.2182    4.5221   22.4652 H   0  0  0  0  0  0  0  0  0  0  0  0
   13.1791   -0.3482   23.6687 H   0  0  0  0  0  0  0  0  0  0  0  0
   14.8987   -1.2504   22.2116 H   0  0  0  0  0  0  0  0  0  0  0  0
   13.1398    3.3025   21.3898 H   0  0  0  0  0  0  0  0  0  0  0  0
   14.5342    2.9861   18.9838 H   0  0  0  0  0  0  0  0  0  0  0  0
   15.3461    3.7757   20.3094 H   0  0  0  0  0  0  0  0  0  0  0  0
   17.0211    3.3626   18.7353 H   0  0  0  0  0  0  0  0  0  0  0  0
   17.3110    2.2706   20.0723 H   0  0  0  0  0  0  0  0  0  0  0  0
   17.7019    1.0213   18.0929 H   0  0  0  0  0  0  0  0  0  0  0  0
   16.3019    1.6746   17.2703 H   0  0  0  0  0  0  0  0  0  0  0  0
   16.1447   -0.6334   18.0272 H   0  0  0  0  0  0  0  0  0  0  0  0
   17.0576   -0.0933   20.3707 H   0  0  0  0  0  0  0  0  0  0  0  0
   15.8091   -1.2867   20.0786 H   0  0  0  0  0  0  0  0  0  0  0  0
    9.5717    2.6334   25.1723 H   0  0  0  0  0  0  0  0  0  0  0  0
   10.5980    3.6565   26.1759 H   0  0  0  0  0  0  0  0  0  0  0  0
  1  2  1  0
  2  3  2  0
  2  4  2  0
  2  5  1  0
  5  6  1  0
  6  7  1  0
  7  8  1  0
  8  9  1  0
  9 10  1  0
 10 11  2  0
 10 12  2  0
 10 13  1  0
 13 14  2  0
 14 15  1  0
 15 16  2  0
 16 17  1  0
 17 18  2  0
 17 19  1  0
 19 20  1  0
 20 21  1  0
 21 22  1  0
 22 23  1  0
  9 24  1  0
 24  6  1  0
 18 13  1  0
 23 16  1  0
  1 25  1  0
  1 26  1  0
  1 27  1  0
  5 28  1  0
  5 29  1  0
  6 30  1  0
  7 31  1  0
  7 32  1  0
  8 33  1  0
  8 34  1  0
 14 35  1  0
 15 36  1  0
 18 37  1  0
 19 38  1  0
 19 39  1  0
 20 40  1  0
 20 41  1  0
 21 42  1  0
 21 43  1  0
 22 44  1  0
 23 45  1  0
 23 46  1  0
 24 47  1  0
 24 48  1  0
M  END
>  <Energy>  (1093) 
1.8372035570088046

>  <compound_id>  (1093) 
66593

>  <target_id>  (1093) 
1

>  <reference_id>  (1093) 
53

>  <inspiration_ids>  (1093) 
[53, 146]

>  <energy_score>  (1093) 
-50.93174765714187

>  <distance_score>  (1093) 
7.474743483452048

>  <path>  (1093) 
/opt/xchem-fragalysis-2/maxwin/BulkDock/SCRATCH/511022/C66593-P53/C66593-P53.minimised.mol

>  <scratch_subdir>  (1093) 
/opt/xchem-fragalysis-2/maxwin/BulkDock/SCRATCH/511022/C66593-P53

>  <fragmenstein_runtime>  (1093) 
5.777681589126587

>  <fragmenstein_outcome>  (1093) 
too moved

>  <fragmenstein_mode>  (1093) 
expansion

>  <fragmenstein_error>  (1093) 


$$$$
C66593-P146
     RDKit          3D

 48 50  0  0  0  0  0  0  0  0999 V2000
    8.8617    5.9726   23.3604 C   0  0  0  0  0  0  0  0  0  0  0  0
   10.5047    5.2994   23.4123 S   0  0  0  0  0  0  0  0  0  0  0  0
   11.0404    5.3422   22.0660 O   0  0  0  0  0  0  0  0  0  0  0  0
   11.2018    5.9197   24.5202 O   0  0  0  0  0  0  0  0  0  0  0  0
   10.2219    3.5872   23.8260 C   0  0  0  0  0  0  0  0  0  0  0  0
   11.5280    2.8251   24.0469 C   0  0  0  0  0  0  0  0  0  0  0  0
   11.3090    1.3890   24.5040 C   0  0  0  0  0  0  0  0  0  0  0  0
   12.6634    0.7410   24.2360 C   0  0  0  0  0  0  0  0  0  0  0  0
   13.0790    1.3186   22.9300 N   0  0  0  0  0  0  0  0  0  0  0  0
   14.7490    1.1867   22.4994 S   0  0  0  0  0  0  0  0  0  0  0  0
   15.0826    2.3557   21.7058 O   0  0  0  0  0  0  0  0  0  0  0  0
   15.5023    0.8670   23.6946 O   0  0  0  0  0  0  0  0  0  0  0  0
   14.9412   -0.2321   21.3899 C   0  0  0  0  0  0  0  0  0  0  0  0
   14.4603   -1.4868   21.7311 C   0  0  0  0  0  0  0  0  0  0  0  0
   14.5371   -2.5391   20.8028 C   0  0  0  0  0  0  0  0  0  0  0  0
   15.1048   -2.3641   19.5229 C   0  0  0  0  0  0  0  0  0  0  0  0
   15.7106   -1.1334   19.2226 C   0  0  0  0  0  0  0  0  0  0  0  0
   15.6331   -0.0858   20.1721 C   0  0  0  0  0  0  0  0  0  0  0  0
   16.4738   -0.9216   17.9326 C   0  0  0  0  0  0  0  0  0  0  0  0
   15.6704   -1.1004   16.6448 C   0  0  0  0  0  0  0  0  0  0  0  0
   15.2929   -2.5408   16.3165 C   0  0  0  0  0  0  0  0  0  0  0  0
   14.3887   -3.1687   17.2777 N   0  0  0  0  0  0  0  0  0  0  0  0
   15.0691   -3.5076   18.5336 C   0  0  0  0  0  0  0  0  0  0  0  0
   12.4009    2.6507   22.7857 C   0  0  0  0  0  0  0  0  0  0  0  0
    8.2866    5.4397   22.6008 H   0  0  0  0  0  0  0  0  0  0  0  0
    8.9351    7.0306   23.1009 H   0  0  0  0  0  0  0  0  0  0  0  0
    8.4027    5.8593   24.3442 H   0  0  0  0  0  0  0  0  0  0  0  0
    9.6133    3.5706   24.7353 H   0  0  0  0  0  0  0  0  0  0  0  0
    9.6603    3.1527   22.9951 H   0  0  0  0  0  0  0  0  0  0  0  0
   12.1279    3.3416   24.8087 H   0  0  0  0  0  0  0  0  0  0  0  0
   10.5510    0.8936   23.8967 H   0  0  0  0  0  0  0  0  0  0  0  0
   11.0153    1.3177   25.5552 H   0  0  0  0  0  0  0  0  0  0  0  0
   12.5928   -0.3463   24.2005 H   0  0  0  0  0  0  0  0  0  0  0  0
   13.3639    1.0312   25.0264 H   0  0  0  0  0  0  0  0  0  0  0  0
   13.9955   -1.6558   22.6981 H   0  0  0  0  0  0  0  0  0  0  0  0
   14.1005   -3.4985   21.0795 H   0  0  0  0  0  0  0  0  0  0  0  0
   16.1008    0.8712   19.9456 H   0  0  0  0  0  0  0  0  0  0  0  0
   16.8830    0.0970   17.9266 H   0  0  0  0  0  0  0  0  0  0  0  0
   17.3451   -1.5891   17.9304 H   0  0  0  0  0  0  0  0  0  0  0  0
   14.7728   -0.4782   16.6611 H   0  0  0  0  0  0  0  0  0  0  0  0
   16.2813   -0.7239   15.8139 H   0  0  0  0  0  0  0  0  0  0  0  0
   16.1925   -3.1517   16.1705 H   0  0  0  0  0  0  0  0  0  0  0  0
   14.7787   -2.5265   15.3480 H   0  0  0  0  0  0  0  0  0  0  0  0
   14.0527   -4.0422   16.8711 H   0  0  0  0  0  0  0  0  0  0  0  0
   16.0818   -3.8963   18.3680 H   0  0  0  0  0  0  0  0  0  0  0  0
   14.5081   -4.3377   18.9817 H   0  0  0  0  0  0  0  0  0  0  0  0
   11.7980    2.6192   21.8720 H   0  0  0  0  0  0  0  0  0  0  0  0
   13.1160    3.4744   22.7142 H   0  0  0  0  0  0  0  0  0  0  0  0
  1  2  1  0
  2  3  2  0
  2  4  2  0
  2  5  1  0
  5  6  1  0
  6  7  1  0
  7  8  1  0
  8  9  1  0
  9 10  1  0
 10 11  2  0
 10 12  2  0
 10 13  1  0
 13 14  2  0
 14 15  1  0
 15 16  2  0
 16 17  1  0
 17 18  2  0
 17 19  1  0
 19 20  1  0
 20 21  1  0
 21 22  1  0
 22 23  1  0
  9 24  1  0
 24  6  1  0
 18 13  1  0
 23 16  1  0
  1 25  1  0
  1 26  1  0
  1 27  1  0
  5 28  1  0
  5 29  1  0
  6 30  1  0
  7 31  1  0
  7 32  1  0
  8 33  1  0
  8 34  1  0
 14 35  1  0
 15 36  1  0
 18 37  1  0
 19 38  1  0
 19 39  1  0
 20 40  1  0
 20 41  1  0
 21 42  1  0
 21 43  1  0
 22 44  1  0
 23 45  1  0
 23 46  1  0
 24 47  1  0
 24 48  1  0
M  END
>  <Energy>  (1094) 
-3.1352740502806062

>  <compound_id>  (1094) 
66593

>  <target_id>  (1094) 
1

>  <reference_id>  (1094) 
146

>  <inspiration_ids>  (1094) 
[53, 146]

>  <energy_score>  (1094) 
-55.904225264431375

>  <distance_score>  (1094) 
7.472091748338765

>  <path>  (1094) 
/opt/xchem-fragalysis-2/maxwin/BulkDock/SCRATCH/511022/C66593-P146/C66593-P146.minimised.mol

>  <scratch_subdir>  (1094) 
/opt/xchem-fragalysis-2/maxwin/BulkDock/SCRATCH/511022/C66593-P146

>  <fragmenstein_runtime>  (1094) 
5.676193714141846

>  <fragmenstein_outcome>  (1094) 
too moved

>  <fragmenstein_mode>  (1094) 
expansion

>  <fragmenstein_error>  (1094) 


$$$$
C63056-P120
     RDKit          3D

 46 48  0  0  0  0  0  0  0  0999 V2000
    4.3235   -2.3666   27.9944 C   0  0  0  0  0  0  0  0  0  0  0  0
    3.3627   -2.4019   26.8680 N   0  0  0  0  0  0  0  0  0  0  0  0
    4.0512   -1.7898   25.5812 C   0  0  0  0  0  0  0  0  0  0  0  0
    4.1197   -2.2450   24.0162 C   0  0  0  0  0  0  0  0  0  0  0  0
    5.3504   -2.1322   22.6240 N   0  0  0  0  0  0  0  0  0  0  0  0
    5.7057   -0.8471   21.4558 C   0  0  0  0  0  0  0  0  0  0  0  0
    5.0604    0.1424   21.5022 O   0  0  0  0  0  0  0  0  0  0  0  0
    6.9571   -0.7398   19.9867 C   0  0  0  0  0  0  0  0  0  0  0  0
    7.2784    0.4509   19.2964 C   0  0  0  0  0  0  0  0  0  0  0  0
    8.1052    0.5690   17.8252 C   0  0  0  0  0  0  0  0  0  0  0  0
    7.6186   -0.3003   16.9196 C   0  0  0  0  0  0  0  0  0  0  0  0
    6.0177   -1.0079   17.9538 S   0  0  0  0  0  0  0  0  0  0  0  0
    2.2805   -1.4652   27.2864 C   0  0  0  0  0  0  0  0  0  0  0  0
    1.4311   -1.6636   28.5666 C   0  0  0  0  0  0  0  0  0  0  0  0
    0.5979   -0.3887   28.6766 C   0  0  0  0  0  0  0  0  0  0  0  0
    1.1707    0.7637   29.2360 C   0  0  0  0  0  0  0  0  0  0  0  0
    0.6535    2.0217   28.9282 C   0  0  0  0  0  0  0  0  0  0  0  0
   -0.4156    2.1318   28.0427 C   0  0  0  0  0  0  0  0  0  0  0  0
   -1.0612    0.9867   27.5739 C   0  0  0  0  0  0  0  0  0  0  0  0
   -0.5826   -0.2713   27.9314 C   0  0  0  0  0  0  0  0  0  0  0  0
   -2.0977    1.0236   26.6752 O   0  0  0  0  0  0  0  0  0  0  0  0
   -2.6522    2.3399   26.5726 C   0  0  0  0  0  0  0  0  0  0  0  0
   -1.5658    3.3944   26.4748 C   0  0  0  0  0  0  0  0  0  0  0  0
   -0.7576    3.4011   27.6565 O   0  0  0  0  0  0  0  0  0  0  0  0
    4.6168   -1.3435   28.2613 H   0  0  0  0  0  0  0  0  0  0  0  0
    3.8931   -2.8455   28.8802 H   0  0  0  0  0  0  0  0  0  0  0  0
    5.2431   -2.9126   27.7896 H   0  0  0  0  0  0  0  0  0  0  0  0
    5.0908   -1.6372   25.8735 H   0  0  0  0  0  0  0  0  0  0  0  0
    3.3755   -0.9560   25.4339 H   0  0  0  0  0  0  0  0  0  0  0  0
    4.0517   -3.2524   24.4035 H   0  0  0  0  0  0  0  0  0  0  0  0
    3.1467   -2.2443   23.5498 H   0  0  0  0  0  0  0  0  0  0  0  0
    5.9145   -2.9185   22.3979 H   0  0  0  0  0  0  0  0  0  0  0  0
    7.3464    1.3459   19.8844 H   0  0  0  0  0  0  0  0  0  0  0  0
    8.5844    1.5010   17.5379 H   0  0  0  0  0  0  0  0  0  0  0  0
    7.5918   -0.4046   15.8445 H   0  0  0  0  0  0  0  0  0  0  0  0
    2.7155   -0.4549   27.3371 H   0  0  0  0  0  0  0  0  0  0  0  0
    1.5711   -1.4391   26.4783 H   0  0  0  0  0  0  0  0  0  0  0  0
    0.7912   -2.5489   28.4859 H   0  0  0  0  0  0  0  0  0  0  0  0
    2.0457   -1.7704   29.4656 H   0  0  0  0  0  0  0  0  0  0  0  0
    2.0882    0.6961   29.8168 H   0  0  0  0  0  0  0  0  0  0  0  0
    1.1405    2.9181   29.3025 H   0  0  0  0  0  0  0  0  0  0  0  0
   -1.0555   -1.1603   27.5297 H   0  0  0  0  0  0  0  0  0  0  0  0
   -3.2690    2.4997   27.4512 H   0  0  0  0  0  0  0  0  0  0  0  0
   -3.2948    2.3699   25.6891 H   0  0  0  0  0  0  0  0  0  0  0  0
   -0.9147    3.2174   25.6098 H   0  0  0  0  0  0  0  0  0  0  0  0
   -2.0110    4.3889   26.3709 H   0  0  0  0  0  0  0  0  0  0  0  0
  1  2  1  0
  2  3  1  0
  3  4  1  0
  4  5  1  0
  5  6  1  0
  6  7  2  0
  6  8  1  0
  8  9  2  0
  9 10  1  0
 10 11  2  0
 11 12  1  0
  2 13  1  0
 13 14  1  0
 14 15  1  0
 15 16  2  0
 16 17  1  0
 17 18  2  0
 18 19  1  0
 19 20  2  0
 19 21  1  0
 21 22  1  0
 22 23  1  0
 23 24  1  0
 12  8  1  0
 20 15  1  0
 24 18  1  0
  1 25  1  0
  1 26  1  0
  1 27  1  0
  3 28  1  0
  3 29  1  0
  4 30  1  0
  4 31  1  0
  5 32  1  0
  9 33  1  0
 10 34  1  0
 11 35  1  0
 13 36  1  0
 13 37  1  0
 14 38  1  0
 14 39  1  0
 16 40  1  0
 17 41  1  0
 20 42  1  0
 22 43  1  0
 22 44  1  0
 23 45  1  0
 23 46  1  0
M  END
>  <Energy>  (1095) 
414.92270309690275

>  <compound_id>  (1095) 
63056

>  <target_id>  (1095) 
1

>  <reference_id>  (1095) 
120

>  <inspiration_ids>  (1095) 
[120, 13]

>  <energy_score>  (1095) 
301.3414661016376

>  <distance_score>  (1095) 
5.008152240672584

>  <path>  (1095) 
/opt/xchem-fragalysis-2/maxwin/BulkDock/SCRATCH/511022/C63056-P120/C63056-P120.minimised.mol

>  <scratch_subdir>  (1095) 
/opt/xchem-fragalysis-2/maxwin/BulkDock/SCRATCH/511022/C63056-P120

>  <fragmenstein_runtime>  (1095) 
10.256383657455444

>  <fragmenstein_outcome>  (1095) 
too moved

>  <fragmenstein_mode>  (1095) 
expansion

>  <fragmenstein_error>  (1095) 


$$$$
C63056-P13
     RDKit          3D

 46 48  0  0  0  0  0  0  0  0999 V2000
    5.1278   -3.2290   26.1115 C   0  0  0  0  0  0  0  0  0  0  0  0
    4.1127   -2.1849   25.9977 N   0  0  0  0  0  0  0  0  0  0  0  0
    4.4615   -1.1850   24.9057 C   0  0  0  0  0  0  0  0  0  0  0  0
    4.6589   -1.5783   23.1217 C   0  0  0  0  0  0  0  0  0  0  0  0
    5.0344   -0.6142   21.5885 N   0  0  0  0  0  0  0  0  0  0  0  0
    6.5646   -0.5812   20.4727 C   0  0  0  0  0  0  0  0  0  0  0  0
    7.4262   -1.3275   20.6679 O   0  0  0  0  0  0  0  0  0  0  0  0
    7.0351    0.5125   19.2156 C   0  0  0  0  0  0  0  0  0  0  0  0
    7.4407    0.2525   17.8835 C   0  0  0  0  0  0  0  0  0  0  0  0
    8.4239    1.0296   17.1862 C   0  0  0  0  0  0  0  0  0  0  0  0
    8.7485    2.0920   17.9578 C   0  0  0  0  0  0  0  0  0  0  0  0
    8.1067    1.9133   19.5013 S   0  0  0  0  0  0  0  0  0  0  0  0
    3.9727   -1.5069   27.3326 C   0  0  0  0  0  0  0  0  0  0  0  0
    2.5449   -1.4147   27.9446 C   0  0  0  0  0  0  0  0  0  0  0  0
    1.7415   -0.1474   27.7294 C   0  0  0  0  0  0  0  0  0  0  0  0
    2.3409    1.1193   27.7003 C   0  0  0  0  0  0  0  0  0  0  0  0
    1.5804    2.2692   27.4667 C   0  0  0  0  0  0  0  0  0  0  0  0
    0.2088    2.1702   27.2615 C   0  0  0  0  0  0  0  0  0  0  0  0
   -0.4218    0.9314   27.3735 C   0  0  0  0  0  0  0  0  0  0  0  0
    0.3383   -0.2157   27.6251 C   0  0  0  0  0  0  0  0  0  0  0  0
   -1.7689    0.7603   27.1801 O   0  0  0  0  0  0  0  0  0  0  0  0
   -2.4649    2.0122   27.1809 C   0  0  0  0  0  0  0  0  0  0  0  0
   -1.7315    3.0546   26.3599 C   0  0  0  0  0  0  0  0  0  0  0  0
   -0.4466    3.3269   26.9309 O   0  0  0  0  0  0  0  0  0  0  0  0
    6.1004   -2.8232   26.4101 H   0  0  0  0  0  0  0  0  0  0  0  0
    4.8247   -3.9790   26.8515 H   0  0  0  0  0  0  0  0  0  0  0  0
    5.2484   -3.7708   25.1736 H   0  0  0  0  0  0  0  0  0  0  0  0
    5.3928   -0.7059   25.2451 H   0  0  0  0  0  0  0  0  0  0  0  0
    3.6985   -0.3957   24.9586 H   0  0  0  0  0  0  0  0  0  0  0  0
    4.9459   -0.5541   23.3792 H   0  0  0  0  0  0  0  0  0  0  0  0
    5.4145   -2.3486   23.2106 H   0  0  0  0  0  0  0  0  0  0  0  0
    4.4150    0.1670   21.3337 H   0  0  0  0  0  0  0  0  0  0  0  0
    6.7877   -0.3593   17.2602 H   0  0  0  0  0  0  0  0  0  0  0  0
    8.6856    0.9174   16.1418 H   0  0  0  0  0  0  0  0  0  0  0  0
    9.3644    2.9420   17.7018 H   0  0  0  0  0  0  0  0  0  0  0  0
    4.5406   -2.0929   28.0706 H   0  0  0  0  0  0  0  0  0  0  0  0
    4.4845   -0.5391   27.3269 H   0  0  0  0  0  0  0  0  0  0  0  0
    2.6512   -1.5101   29.0347 H   0  0  0  0  0  0  0  0  0  0  0  0
    1.9676   -2.2936   27.6370 H   0  0  0  0  0  0  0  0  0  0  0  0
    3.4109    1.2400   27.8436 H   0  0  0  0  0  0  0  0  0  0  0  0
    2.0657    3.2400   27.4113 H   0  0  0  0  0  0  0  0  0  0  0  0
   -0.1720   -1.1757   27.6782 H   0  0  0  0  0  0  0  0  0  0  0  0
   -2.5571    2.3385   28.2178 H   0  0  0  0  0  0  0  0  0  0  0  0
   -3.4657    1.8414   26.7734 H   0  0  0  0  0  0  0  0  0  0  0  0
   -1.5911    2.7250   25.3233 H   0  0  0  0  0  0  0  0  0  0  0  0
   -2.2945    3.9926   26.3461 H   0  0  0  0  0  0  0  0  0  0  0  0
  1  2  1  0
  2  3  1  0
  3  4  1  0
  4  5  1  0
  5  6  1  0
  6  7  2  0
  6  8  1  0
  8  9  2  0
  9 10  1  0
 10 11  2  0
 11 12  1  0
  2 13  1  0
 13 14  1  0
 14 15  1  0
 15 16  2  0
 16 17  1  0
 17 18  2  0
 18 19  1  0
 19 20  2  0
 19 21  1  0
 21 22  1  0
 22 23  1  0
 23 24  1  0
 12  8  1  0
 20 15  1  0
 24 18  1  0
  1 25  1  0
  1 26  1  0
  1 27  1  0
  3 28  1  0
  3 29  1  0
  4 30  1  0
  4 31  1  0
  5 32  1  0
  9 33  1  0
 10 34  1  0
 11 35  1  0
 13 36  1  0
 13 37  1  0
 14 38  1  0
 14 39  1  0
 16 40  1  0
 17 41  1  0
 20 42  1  0
 22 43  1  0
 22 44  1  0
 23 45  1  0
 23 46  1  0
M  END
>  <Energy>  (1096) 
361.91424864082666

>  <compound_id>  (1096) 
63056

>  <target_id>  (1096) 
1

>  <reference_id>  (1096) 
13

>  <inspiration_ids>  (1096) 
[120, 13]

>  <energy_score>  (1096) 
248.333011645552

>  <distance_score>  (1096) 
5.493076472026454

>  <path>  (1096) 
/opt/xchem-fragalysis-2/maxwin/BulkDock/SCRATCH/511022/C63056-P13/C63056-P13.minimised.mol

>  <scratch_subdir>  (1096) 
/opt/xchem-fragalysis-2/maxwin/BulkDock/SCRATCH/511022/C63056-P13

>  <fragmenstein_runtime>  (1096) 
8.24931526184082

>  <fragmenstein_outcome>  (1096) 
too moved

>  <fragmenstein_mode>  (1096) 
expansion

>  <fragmenstein_error>  (1096) 


$$$$
C63090-P120
     RDKit          3D

 44 46  0  0  0  0  0  0  0  0999 V2000
    7.6963    2.6636   17.8762 C   0  0  0  0  0  0  0  0  0  0  0  0
    7.4960    1.6401   19.0144 C   0  0  0  0  0  0  0  0  0  0  0  0
    7.4572    1.4832   20.3781 C   0  0  0  0  0  0  0  0  0  0  0  0
    7.5010    0.0734   20.1231 C   0  0  0  0  0  0  0  0  0  0  0  0
    6.8731   -1.0375   20.6207 C   0  0  0  0  0  0  0  0  0  0  0  0
    5.6509   -1.0521   21.5790 C   0  0  0  0  0  0  0  0  0  0  0  0
    4.8751   -0.0560   21.6058 O   0  0  0  0  0  0  0  0  0  0  0  0
    5.3757   -2.1524   22.6007 O   0  0  0  0  0  0  0  0  0  0  0  0
    4.8523   -1.9881   24.1399 C   0  0  0  0  0  0  0  0  0  0  0  0
    3.6942   -2.3799   25.2909 C   0  0  0  0  0  0  0  0  0  0  0  0
    3.0328   -3.3552   25.1395 O   0  0  0  0  0  0  0  0  0  0  0  0
    3.6213   -1.3493   26.2958 N   0  0  0  0  0  0  0  0  0  0  0  0
    4.5037   -1.7018   27.4651 C   0  0  0  0  0  0  0  0  0  0  0  0
    2.6369   -1.1194   27.3821 C   0  0  0  0  0  0  0  0  0  0  0  0
    1.7912   -1.8835   28.3574 C   0  0  0  0  0  0  0  0  0  0  0  0
    1.3345   -3.1803   28.1946 C   0  0  0  0  0  0  0  0  0  0  0  0
    0.3303   -3.6880   29.0315 C   0  0  0  0  0  0  0  0  0  0  0  0
   -0.2514   -2.8874   30.0158 C   0  0  0  0  0  0  0  0  0  0  0  0
    0.1805   -1.5783   30.1763 C   0  0  0  0  0  0  0  0  0  0  0  0
    1.1900   -1.0885   29.3637 C   0  0  0  0  0  0  0  0  0  0  0  0
   -0.3536   -0.7072   31.0874 O   0  0  0  0  0  0  0  0  0  0  0  0
   -0.9445   -1.4351   32.1618 C   0  0  0  0  0  0  0  0  0  0  0  0
   -1.8869   -2.5003   31.6331 C   0  0  0  0  0  0  0  0  0  0  0  0
   -1.2305   -3.4515   30.7898 O   0  0  0  0  0  0  0  0  0  0  0  0
    7.2337   -0.3105   18.6962 S   0  0  0  0  0  0  0  0  0  0  0  0
    8.2253    2.1893   17.0419 H   0  0  0  0  0  0  0  0  0  0  0  0
    8.2616    3.5527   18.1599 H   0  0  0  0  0  0  0  0  0  0  0  0
    6.7527    3.0854   17.5114 H   0  0  0  0  0  0  0  0  0  0  0  0
    7.4790    2.1153   21.2629 H   0  0  0  0  0  0  0  0  0  0  0  0
    8.4482   -0.3686   20.4911 H   0  0  0  0  0  0  0  0  0  0  0  0
    5.7685   -1.9230   24.7118 H   0  0  0  0  0  0  0  0  0  0  0  0
    4.3620   -1.0897   23.9850 H   0  0  0  0  0  0  0  0  0  0  0  0
    4.2630   -2.6746   27.9143 H   0  0  0  0  0  0  0  0  0  0  0  0
    4.6680   -0.9080   28.2116 H   0  0  0  0  0  0  0  0  0  0  0  0
    5.5094   -1.8390   27.0474 H   0  0  0  0  0  0  0  0  0  0  0  0
    1.8149   -0.7744   26.7433 H   0  0  0  0  0  0  0  0  0  0  0  0
    2.9104   -0.1472   27.8393 H   0  0  0  0  0  0  0  0  0  0  0  0
    1.6932   -3.7751   27.3645 H   0  0  0  0  0  0  0  0  0  0  0  0
   -0.0298   -4.7023   28.8788 H   0  0  0  0  0  0  0  0  0  0  0  0
    1.4758   -0.0443   29.4830 H   0  0  0  0  0  0  0  0  0  0  0  0
   -1.4924   -0.7240   32.7883 H   0  0  0  0  0  0  0  0  0  0  0  0
   -0.1468   -1.8756   32.7738 H   0  0  0  0  0  0  0  0  0  0  0  0
   -2.6999   -2.0498   31.0616 H   0  0  0  0  0  0  0  0  0  0  0  0
   -2.3312   -3.0481   32.4690 H   0  0  0  0  0  0  0  0  0  0  0  0
  1  2  1  0
  2  3  2  0
  3  4  1  0
  4  5  2  0
  5  6  1  0
  6  7  2  0
  6  8  1  0
  8  9  1  0
  9 10  1  0
 10 11  2  0
 10 12  1  0
 12 13  1  0
 12 14  1  0
 14 15  1  0
 15 16  2  0
 16 17  1  0
 17 18  2  0
 18 19  1  0
 19 20  2  0
 19 21  1  0
 21 22  1  0
 22 23  1  0
 23 24  1  0
  5 25  1  0
 25  2  1  0
 20 15  1  0
 24 18  1  0
  1 26  1  0
  1 27  1  0
  1 28  1  0
  3 29  1  0
  4 30  1  0
  9 31  1  0
  9 32  1  0
 13 33  1  0
 13 34  1  0
 13 35  1  0
 14 36  1  0
 14 37  1  0
 16 38  1  0
 17 39  1  0
 20 40  1  0
 22 41  1  0
 22 42  1  0
 23 43  1  0
 23 44  1  0
M  END
>  <Energy>  (1097) 
482.3783668117859

>  <compound_id>  (1097) 
63090

>  <target_id>  (1097) 
1

>  <reference_id>  (1097) 
120

>  <inspiration_ids>  (1097) 
[120, 13]

>  <energy_score>  (1097) 
384.3522775574381

>  <distance_score>  (1097) 
6.703408453138828

>  <path>  (1097) 
/opt/xchem-fragalysis-2/maxwin/BulkDock/SCRATCH/511022/C63090-P120/C63090-P120.minimised.mol

>  <scratch_subdir>  (1097) 
/opt/xchem-fragalysis-2/maxwin/BulkDock/SCRATCH/511022/C63090-P120

>  <fragmenstein_runtime>  (1097) 
14.45446515083313

>  <fragmenstein_outcome>  (1097) 
too moved

>  <fragmenstein_mode>  (1097) 
expansion

>  <fragmenstein_error>  (1097) 


$$$$
C63090-P13
     RDKit          3D

 44 46  0  0  0  0  0  0  0  0999 V2000
    5.4389   -8.1103   15.4691 C   0  0  0  0  0  0  0  0  0  0  0  0
    5.7777   -7.3349   16.6940 C   0  0  0  0  0  0  0  0  0  0  0  0
    6.2076   -7.7945   17.8835 C   0  0  0  0  0  0  0  0  0  0  0  0
    6.5899   -6.7259   18.7753 C   0  0  0  0  0  0  0  0  0  0  0  0
    6.2206   -5.3285   18.6179 C   0  0  0  0  0  0  0  0  0  0  0  0
    5.2080   -4.3009   19.6169 C   0  0  0  0  0  0  0  0  0  0  0  0
    4.0341   -4.6565   19.5008 O   0  0  0  0  0  0  0  0  0  0  0  0
    5.4182   -2.9625   20.8957 O   0  0  0  0  0  0  0  0  0  0  0  0
    4.9546   -2.2187   22.6576 C   0  0  0  0  0  0  0  0  0  0  0  0
    5.0491   -2.5341   24.5317 C   0  0  0  0  0  0  0  0  0  0  0  0
    5.4654   -3.6168   24.8687 O   0  0  0  0  0  0  0  0  0  0  0  0
    4.5012   -1.4412   25.3351 N   0  0  0  0  0  0  0  0  0  0  0  0
    5.5895   -0.5038   25.7492 C   0  0  0  0  0  0  0  0  0  0  0  0
    4.1789   -1.3674   26.8255 C   0  0  0  0  0  0  0  0  0  0  0  0
    3.0002   -0.4544   27.2090 C   0  0  0  0  0  0  0  0  0  0  0  0
    2.9917    0.9316   26.9736 C   0  0  0  0  0  0  0  0  0  0  0  0
    1.8595    1.7106   27.2450 C   0  0  0  0  0  0  0  0  0  0  0  0
    0.7005    1.1073   27.7135 C   0  0  0  0  0  0  0  0  0  0  0  0
    0.7037   -0.2505   28.0265 C   0  0  0  0  0  0  0  0  0  0  0  0
    1.8525   -1.0162   27.8054 C   0  0  0  0  0  0  0  0  0  0  0  0
   -0.3961   -0.9179   28.4957 O   0  0  0  0  0  0  0  0  0  0  0  0
   -1.5024   -0.0459   28.7438 C   0  0  0  0  0  0  0  0  0  0  0  0
   -1.5925    1.0762   27.7243 C   0  0  0  0  0  0  0  0  0  0  0  0
   -0.4184    1.8927   27.7986 O   0  0  0  0  0  0  0  0  0  0  0  0
    5.5339   -5.6940   16.7722 S   0  0  0  0  0  0  0  0  0  0  0  0
    5.1203   -9.1252   15.7300 H   0  0  0  0  0  0  0  0  0  0  0  0
    6.3159   -8.1894   14.8183 H   0  0  0  0  0  0  0  0  0  0  0  0
    4.6262   -7.6465   14.9000 H   0  0  0  0  0  0  0  0  0  0  0  0
    6.3689   -8.8433   18.1049 H   0  0  0  0  0  0  0  0  0  0  0  0
    6.9367   -7.1196   19.7221 H   0  0  0  0  0  0  0  0  0  0  0  0
    4.9047   -1.1260   22.5009 H   0  0  0  0  0  0  0  0  0  0  0  0
    3.8082   -2.2630   22.8196 H   0  0  0  0  0  0  0  0  0  0  0  0
    5.5028    0.2195   26.5755 H   0  0  0  0  0  0  0  0  0  0  0  0
    5.6369    0.1778   24.9121 H   0  0  0  0  0  0  0  0  0  0  0  0
    6.5450   -1.0345   25.8601 H   0  0  0  0  0  0  0  0  0  0  0  0
    3.7896   -2.3888   26.9757 H   0  0  0  0  0  0  0  0  0  0  0  0
    4.9945   -1.3957   27.5743 H   0  0  0  0  0  0  0  0  0  0  0  0
    3.8382    1.4402   26.5229 H   0  0  0  0  0  0  0  0  0  0  0  0
    1.8615    2.7732   27.0156 H   0  0  0  0  0  0  0  0  0  0  0  0
    1.8121   -2.0798   28.0296 H   0  0  0  0  0  0  0  0  0  0  0  0
   -1.3950    0.3504   29.7601 H   0  0  0  0  0  0  0  0  0  0  0  0
   -2.4044   -0.6600   28.7122 H   0  0  0  0  0  0  0  0  0  0  0  0
   -2.4550    1.7152   27.9332 H   0  0  0  0  0  0  0  0  0  0  0  0
   -1.6978    0.6894   26.7028 H   0  0  0  0  0  0  0  0  0  0  0  0
  1  2  1  0
  2  3  2  0
  3  4  1  0
  4  5  2  0
  5  6  1  0
  6  7  2  0
  6  8  1  0
  8  9  1  0
  9 10  1  0
 10 11  2  0
 10 12  1  0
 12 13  1  0
 12 14  1  0
 14 15  1  0
 15 16  2  0
 16 17  1  0
 17 18  2  0
 18 19  1  0
 19 20  2  0
 19 21  1  0
 21 22  1  0
 22 23  1  0
 23 24  1  0
  5 25  1  0
 25  2  1  0
 20 15  1  0
 24 18  1  0
  1 26  1  0
  1 27  1  0
  1 28  1  0
  3 29  1  0
  4 30  1  0
  9 31  1  0
  9 32  1  0
 13 33  1  0
 13 34  1  0
 13 35  1  0
 14 36  1  0
 14 37  1  0
 16 38  1  0
 17 39  1  0
 20 40  1  0
 22 41  1  0
 22 42  1  0
 23 43  1  0
 23 44  1  0
M  END
>  <Energy>  (1098) 
494.74244348090127

>  <compound_id>  (1098) 
63090

>  <target_id>  (1098) 
1

>  <reference_id>  (1098) 
13

>  <inspiration_ids>  (1098) 
[120, 13]

>  <energy_score>  (1098) 
396.7163542265425

>  <distance_score>  (1098) 
7.42555156398052

>  <path>  (1098) 
/opt/xchem-fragalysis-2/maxwin/BulkDock/SCRATCH/511022/C63090-P13/C63090-P13.minimised.mol

>  <scratch_subdir>  (1098) 
/opt/xchem-fragalysis-2/maxwin/BulkDock/SCRATCH/511022/C63090-P13

>  <fragmenstein_runtime>  (1098) 
11.081477403640747

>  <fragmenstein_outcome>  (1098) 
too moved

>  <fragmenstein_mode>  (1098) 
expansion

>  <fragmenstein_error>  (1098) 


$$$$
C63091-P120
     RDKit          3D

 51 53  0  0  0  0  0  0  0  0999 V2000
    9.0342    3.9909   16.2124 C   0  0  0  0  0  0  0  0  0  0  0  0
    8.5296    2.7862   16.9342 C   0  0  0  0  0  0  0  0  0  0  0  0
    8.8553    1.4916   16.7087 C   0  0  0  0  0  0  0  0  0  0  0  0
    8.1851    0.5976   17.5955 C   0  0  0  0  0  0  0  0  0  0  0  0
    7.4269    1.0164   18.8730 C   0  0  0  0  0  0  0  0  0  0  0  0
    7.0751   -0.3013   20.0995 C   0  0  0  0  0  0  0  0  0  0  0  0
    7.9131   -1.1253   20.0282 O   0  0  0  0  0  0  0  0  0  0  0  0
    5.7443   -0.4974   21.3796 N   0  0  0  0  0  0  0  0  0  0  0  0
    5.3441   -1.9101   22.6155 C   0  0  0  0  0  0  0  0  0  0  0  0
    5.0838   -1.9560   24.5473 C   0  0  0  0  0  0  0  0  0  0  0  0
    6.1474   -1.9610   25.1018 O   0  0  0  0  0  0  0  0  0  0  0  0
    3.6376   -1.8711   25.1935 N   0  0  0  0  0  0  0  0  0  0  0  0
    3.1746   -1.6580   26.7471 C   0  0  0  0  0  0  0  0  0  0  0  0
    3.1812   -0.1921   27.4134 C   0  0  0  0  0  0  0  0  0  0  0  0
    3.6014   -0.0466   28.7542 C   0  0  0  0  0  0  0  0  0  0  0  0
    3.2004    1.0566   29.5294 C   0  0  0  0  0  0  0  0  0  0  0  0
    2.3873    2.0471   28.9826 C   0  0  0  0  0  0  0  0  0  0  0  0
    2.0509    1.9787   27.6397 C   0  0  0  0  0  0  0  0  0  0  0  0
    2.5123    0.9159   26.8670 C   0  0  0  0  0  0  0  0  0  0  0  0
    1.2421    2.8877   27.0047 O   0  0  0  0  0  0  0  0  0  0  0  0
    0.4894    3.6504   27.9550 C   0  0  0  0  0  0  0  0  0  0  0  0
    1.3947    4.1436   29.0736 C   0  0  0  0  0  0  0  0  0  0  0  0
    1.9455    3.0436   29.8122 O   0  0  0  0  0  0  0  0  0  0  0  0
    1.8954   -2.2280   27.5945 C   0  0  0  0  0  0  0  0  0  0  0  0
    1.6050   -3.6849   27.8409 C   0  0  0  0  0  0  0  0  0  0  0  0
    0.5885   -1.4059   27.7179 C   0  0  0  0  0  0  0  0  0  0  0  0
    7.2934    2.9747   18.0820 S   0  0  0  0  0  0  0  0  0  0  0  0
    9.3622    4.7620   16.9176 H   0  0  0  0  0  0  0  0  0  0  0  0
    9.8896    3.7364   15.5776 H   0  0  0  0  0  0  0  0  0  0  0  0
    8.2533    4.4121   15.5705 H   0  0  0  0  0  0  0  0  0  0  0  0
    9.4890    1.1678   15.8915 H   0  0  0  0  0  0  0  0  0  0  0  0
    8.1774   -0.4144   17.3005 H   0  0  0  0  0  0  0  0  0  0  0  0
    5.0759    0.2216   21.2590 H   0  0  0  0  0  0  0  0  0  0  0  0
    5.5433   -2.7504   21.9896 H   0  0  0  0  0  0  0  0  0  0  0  0
    4.3360   -1.6009   22.7416 H   0  0  0  0  0  0  0  0  0  0  0  0
    2.9498   -1.8043   24.4576 H   0  0  0  0  0  0  0  0  0  0  0  0
    4.0397   -2.1479   27.2190 H   0  0  0  0  0  0  0  0  0  0  0  0
    4.1647   -0.8449   29.2361 H   0  0  0  0  0  0  0  0  0  0  0  0
    3.4898    1.1115   30.5754 H   0  0  0  0  0  0  0  0  0  0  0  0
    2.3399    0.9878   25.8119 H   0  0  0  0  0  0  0  0  0  0  0  0
   -0.3206    3.0201   28.3405 H   0  0  0  0  0  0  0  0  0  0  0  0
    0.0427    4.4975   27.4254 H   0  0  0  0  0  0  0  0  0  0  0  0
    0.8255    4.7612   29.7755 H   0  0  0  0  0  0  0  0  0  0  0  0
    2.2236    4.7457   28.6813 H   0  0  0  0  0  0  0  0  0  0  0  0
    2.2737   -2.0507   28.6169 H   0  0  0  0  0  0  0  0  0  0  0  0
    2.3877   -4.1013   28.4772 H   0  0  0  0  0  0  0  0  0  0  0  0
    1.4949   -4.2550   26.9365 H   0  0  0  0  0  0  0  0  0  0  0  0
    0.6815   -3.8316   28.4152 H   0  0  0  0  0  0  0  0  0  0  0  0
    0.4750   -0.6295   26.9715 H   0  0  0  0  0  0  0  0  0  0  0  0
    0.5512   -0.8968   28.6905 H   0  0  0  0  0  0  0  0  0  0  0  0
   -0.3046   -2.0362   27.6935 H   0  0  0  0  0  0  0  0  0  0  0  0
  1  2  1  0
  2  3  2  0
  3  4  1  0
  4  5  2  0
  5  6  1  0
  6  7  2  0
  6  8  1  0
  8  9  1  0
  9 10  1  0
 10 11  2  0
 10 12  1  0
 12 13  1  0
 13 14  1  0
 14 15  2  0
 15 16  1  0
 16 17  2  0
 17 18  1  0
 18 19  2  0
 18 20  1  0
 20 21  1  0
 21 22  1  0
 22 23  1  0
 13 24  1  0
 24 25  1  0
 24 26  1  0
  5 27  1  0
 27  2  1  0
 19 14  1  0
 23 17  1  0
  1 28  1  0
  1 29  1  0
  1 30  1  0
  3 31  1  0
  4 32  1  0
  8 33  1  0
  9 34  1  0
  9 35  1  0
 12 36  1  0
 13 37  1  0
 15 38  1  0
 16 39  1  0
 19 40  1  0
 21 41  1  0
 21 42  1  0
 22 43  1  0
 22 44  1  0
 24 45  1  0
 25 46  1  0
 25 47  1  0
 25 48  1  0
 26 49  1  0
 26 50  1  0
 26 51  1  0
M  END
>  <Energy>  (1099) 
469.95127900150118

>  <compound_id>  (1099) 
63091

>  <target_id>  (1099) 
1

>  <reference_id>  (1099) 
120

>  <inspiration_ids>  (1099) 
[120, 13]

>  <energy_score>  (1099) 
363.42011241962257

>  <distance_score>  (1099) 
6.42316979852623

>  <path>  (1099) 
/opt/xchem-fragalysis-2/maxwin/BulkDock/SCRATCH/511022/C63091-P120/C63091-P120.minimised.mol

>  <scratch_subdir>  (1099) 
/opt/xchem-fragalysis-2/maxwin/BulkDock/SCRATCH/511022/C63091-P120

>  <fragmenstein_runtime>  (1099) 
13.780900478363037

>  <fragmenstein_outcome>  (1099) 
too moved

>  <fragmenstein_mode>  (1099) 
expansion

>  <fragmenstein_error>  (1099) 


$$$$
C63091-P13
     RDKit          3D

 51 53  0  0  0  0  0  0  0  0999 V2000
   10.4630   -1.1940   16.0568 C   0  0  0  0  0  0  0  0  0  0  0  0
   10.4882   -1.7523   17.4561 C   0  0  0  0  0  0  0  0  0  0  0  0
   11.7497   -2.5418   18.6961 C   0  0  0  0  0  0  0  0  0  0  0  0
   11.1436   -2.8013   20.7182 C   0  0  0  0  0  0  0  0  0  0  0  0
    9.1939   -2.8599   20.5519 C   0  0  0  0  0  0  0  0  0  0  0  0
    7.4220   -2.4459   21.3514 C   0  0  0  0  0  0  0  0  0  0  0  0
    6.9969   -1.4310   20.7906 O   0  0  0  0  0  0  0  0  0  0  0  0
    6.4433   -3.0729   22.8324 N   0  0  0  0  0  0  0  0  0  0  0  0
    5.0613   -2.3748   23.7334 C   0  0  0  0  0  0  0  0  0  0  0  0
    4.9165   -1.2784   25.0715 C   0  0  0  0  0  0  0  0  0  0  0  0
    5.0905   -0.1114   24.8781 O   0  0  0  0  0  0  0  0  0  0  0  0
    4.5412   -1.9905   26.2840 N   0  0  0  0  0  0  0  0  0  0  0  0
    4.3562   -1.5172   27.6509 C   0  0  0  0  0  0  0  0  0  0  0  0
    3.0480   -0.7303   27.7561 C   0  0  0  0  0  0  0  0  0  0  0  0
    3.0689    0.6576   27.5192 C   0  0  0  0  0  0  0  0  0  0  0  0
    1.8984    1.4227   27.5550 C   0  0  0  0  0  0  0  0  0  0  0  0
    0.6770    0.8066   27.7953 C   0  0  0  0  0  0  0  0  0  0  0  0
    0.6332   -0.5622   28.0591 C   0  0  0  0  0  0  0  0  0  0  0  0
    1.8072   -1.3255   28.0364 C   0  0  0  0  0  0  0  0  0  0  0  0
   -0.5270   -1.2429   28.3120 O   0  0  0  0  0  0  0  0  0  0  0  0
   -1.6585   -0.3779   28.4353 C   0  0  0  0  0  0  0  0  0  0  0  0
   -1.6028    0.7984   27.4779 C   0  0  0  0  0  0  0  0  0  0  0  0
   -0.4411    1.5957   27.7300 O   0  0  0  0  0  0  0  0  0  0  0  0
    4.5281   -2.6674   28.6839 C   0  0  0  0  0  0  0  0  0  0  0  0
    4.4142   -2.1592   30.1281 C   0  0  0  0  0  0  0  0  0  0  0  0
    5.8911   -3.3615   28.5269 C   0  0  0  0  0  0  0  0  0  0  0  0
    8.6232   -0.8803   19.0504 S   0  0  0  0  0  0  0  0  0  0  0  0
   11.4842   -1.0212   15.7060 H   0  0  0  0  0  0  0  0  0  0  0  0
    9.9836   -1.8935   15.3672 H   0  0  0  0  0  0  0  0  0  0  0  0
    9.9125   -0.2496   16.0339 H   0  0  0  0  0  0  0  0  0  0  0  0
   12.7377   -2.8908   18.4026 H   0  0  0  0  0  0  0  0  0  0  0  0
   11.7195   -3.5327   21.3074 H   0  0  0  0  0  0  0  0  0  0  0  0
    6.8542   -3.9578   23.1338 H   0  0  0  0  0  0  0  0  0  0  0  0
    5.0388   -3.2058   24.4667 H   0  0  0  0  0  0  0  0  0  0  0  0
    4.2916   -1.9805   23.0915 H   0  0  0  0  0  0  0  0  0  0  0  0
    4.5647   -2.9810   26.1048 H   0  0  0  0  0  0  0  0  0  0  0  0
    5.1743   -0.8035   27.8221 H   0  0  0  0  0  0  0  0  0  0  0  0
    4.0064    1.1531   27.2663 H   0  0  0  0  0  0  0  0  0  0  0  0
    1.9399    2.4881   27.3452 H   0  0  0  0  0  0  0  0  0  0  0  0
    1.7274   -2.3936   28.2127 H   0  0  0  0  0  0  0  0  0  0  0  0
   -1.7111   -0.0353   29.4756 H   0  0  0  0  0  0  0  0  0  0  0  0
   -2.5428   -0.9842   28.2288 H   0  0  0  0  0  0  0  0  0  0  0  0
   -2.4794    1.4396   27.6122 H   0  0  0  0  0  0  0  0  0  0  0  0
   -1.5899    0.4664   26.4346 H   0  0  0  0  0  0  0  0  0  0  0  0
    3.7557   -3.4299   28.5223 H   0  0  0  0  0  0  0  0  0  0  0  0
    5.1562   -1.3794   30.3317 H   0  0  0  0  0  0  0  0  0  0  0  0
    4.5804   -2.9753   30.8400 H   0  0  0  0  0  0  0  0  0  0  0  0
    3.4236   -1.7473   30.3398 H   0  0  0  0  0  0  0  0  0  0  0  0
    6.0177   -4.1426   29.2846 H   0  0  0  0  0  0  0  0  0  0  0  0
    6.7140   -2.6472   28.6381 H   0  0  0  0  0  0  0  0  0  0  0  0
    5.9894   -3.8441   27.5498 H   0  0  0  0  0  0  0  0  0  0  0  0
  1  2  1  0
  2  3  2  0
  3  4  1  0
  4  5  2  0
  5  6  1  0
  6  7  2  0
  6  8  1  0
  8  9  1  0
  9 10  1  0
 10 11  2  0
 10 12  1  0
 12 13  1  0
 13 14  1  0
 14 15  2  0
 15 16  1  0
 16 17  2  0
 17 18  1  0
 18 19  2  0
 18 20  1  0
 20 21  1  0
 21 22  1  0
 22 23  1  0
 13 24  1  0
 24 25  1  0
 24 26  1  0
  5 27  1  0
 27  2  1  0
 19 14  1  0
 23 17  1  0
  1 28  1  0
  1 29  1  0
  1 30  1  0
  3 31  1  0
  4 32  1  0
  8 33  1  0
  9 34  1  0
  9 35  1  0
 12 36  1  0
 13 37  1  0
 15 38  1  0
 16 39  1  0
 19 40  1  0
 21 41  1  0
 21 42  1  0
 22 43  1  0
 22 44  1  0
 24 45  1  0
 25 46  1  0
 25 47  1  0
 25 48  1  0
 26 49  1  0
 26 50  1  0
 26 51  1  0
M  END
>  <Energy>  (1100) 
1018.6869826358442

>  <compound_id>  (1100) 
63091

>  <target_id>  (1100) 
1

>  <reference_id>  (1100) 
13

>  <inspiration_ids>  (1100) 
[120, 13]

>  <energy_score>  (1100) 
912.155816053961

>  <distance_score>  (1100) 
5.513134122975927

>  <path>  (1100) 
/opt/xchem-fragalysis-2/maxwin/BulkDock/SCRATCH/511022/C63091-P13/C63091-P13.minimised.mol

>  <scratch_subdir>  (1100) 
/opt/xchem-fragalysis-2/maxwin/BulkDock/SCRATCH/511022/C63091-P13

>  <fragmenstein_runtime>  (1100) 
16.18838930130005

>  <fragmenstein_outcome>  (1100) 
too moved

>  <fragmenstein_mode>  (1100) 
expansion

>  <fragmenstein_error>  (1100) 


$$$$
C63105-P120
     RDKit          3D

 34 37  0  0  0  0  0  0  0  0999 V2000
    9.0349    4.4553   15.1417 C   0  0  0  0  0  0  0  0  0  0  0  0
    8.6961    3.3593   16.0925 C   0  0  0  0  0  0  0  0  0  0  0  0
    9.0026    2.0214   15.9980 C   0  0  0  0  0  0  0  0  0  0  0  0
    8.4773    1.2908   17.0953 C   0  0  0  0  0  0  0  0  0  0  0  0
    7.8877    2.0917   18.0794 C   0  0  0  0  0  0  0  0  0  0  0  0
    7.3009    1.4283   19.6665 C   0  0  0  0  0  0  0  0  0  0  0  0
    7.0889    0.3270   20.2474 N   0  0  0  0  0  0  0  0  0  0  0  0
    6.6645    1.9372   21.4519 O   0  0  0  0  0  0  0  0  0  0  0  0
    5.0674    0.8719   21.7871 C   0  0  0  0  0  0  0  0  0  0  0  0
    3.9702    1.7937   23.0958 C   0  0  0  0  0  0  0  0  0  0  0  0
    4.4913    2.8418   23.9495 C   0  0  0  0  0  0  0  0  0  0  0  0
    3.6455    3.5379   24.8386 C   0  0  0  0  0  0  0  0  0  0  0  0
    2.3023    3.5826   24.5518 C   0  0  0  0  0  0  0  0  0  0  0  0
    1.9325    2.9818   23.3810 C   0  0  0  0  0  0  0  0  0  0  0  0
    2.7076    2.0873   22.6831 N   0  0  0  0  0  0  0  0  0  0  0  0
    1.3393    4.1514   25.3206 O   0  0  0  0  0  0  0  0  0  0  0  0
    1.7914    4.8098   26.5074 C   0  0  0  0  0  0  0  0  0  0  0  0
    3.0470    4.1977   27.1178 C   0  0  0  0  0  0  0  0  0  0  0  0
    4.1594    4.2071   26.0728 C   0  0  0  0  0  0  0  0  0  0  0  0
    6.8266    1.4163   21.3631 N   0  0  0  0  0  0  0  0  0  0  0  0
    7.7595    3.7136   17.4869 S   0  0  0  0  0  0  0  0  0  0  0  0
    9.6623    4.0837   14.3246 H   0  0  0  0  0  0  0  0  0  0  0  0
    8.1270    4.8799   14.7004 H   0  0  0  0  0  0  0  0  0  0  0  0
    9.5856    5.2546   15.6485 H   0  0  0  0  0  0  0  0  0  0  0  0
    9.5378    1.5835   15.1643 H   0  0  0  0  0  0  0  0  0  0  0  0
    8.5185    0.2215   17.1738 H   0  0  0  0  0  0  0  0  0  0  0  0
    5.5541    3.0544   23.9806 H   0  0  0  0  0  0  0  0  0  0  0  0
    0.9386    3.1506   22.9735 H   0  0  0  0  0  0  0  0  0  0  0  0
    0.9733    4.7692   27.2345 H   0  0  0  0  0  0  0  0  0  0  0  0
    1.9561    5.8670   26.2659 H   0  0  0  0  0  0  0  0  0  0  0  0
    2.8392    3.1652   27.4271 H   0  0  0  0  0  0  0  0  0  0  0  0
    3.3543    4.7584   28.0067 H   0  0  0  0  0  0  0  0  0  0  0  0
    4.4621    5.2329   25.8336 H   0  0  0  0  0  0  0  0  0  0  0  0
    5.0325    3.6750   26.4668 H   0  0  0  0  0  0  0  0  0  0  0  0
  1  2  1  0
  2  3  2  0
  3  4  1  0
  4  5  2  0
  5  6  1  0
  6  7  2  0
  7  8  1  0
  8  9  1  0
  9 10  1  0
 10 11  2  0
 11 12  1  0
 12 13  2  0
 13 14  1  0
 14 15  2  0
 13 16  1  0
 16 17  1  0
 17 18  1  0
 18 19  1  0
  9 20  2  0
  5 21  1  0
 21  2  1  0
 20  6  1  0
 15 10  1  0
 19 12  1  0
  1 22  1  0
  1 23  1  0
  1 24  1  0
  3 25  1  0
  4 26  1  0
 11 27  1  0
 14 28  1  0
 17 29  1  0
 17 30  1  0
 18 31  1  0
 18 32  1  0
 19 33  1  0
 19 34  1  0
M  END
>  <Energy>  (1101) 
921.16937561022485

>  <compound_id>  (1101) 
63105

>  <target_id>  (1101) 
1

>  <reference_id>  (1101) 
120

>  <inspiration_ids>  (1101) 
[120, 13]

>  <energy_score>  (1101) 
772.8887238501259

>  <distance_score>  (1101) 
6.329811229846419

>  <path>  (1101) 
/opt/xchem-fragalysis-2/maxwin/BulkDock/SCRATCH/511022/C63105-P120/C63105-P120.minimised.mol

>  <scratch_subdir>  (1101) 
/opt/xchem-fragalysis-2/maxwin/BulkDock/SCRATCH/511022/C63105-P120

>  <fragmenstein_runtime>  (1101) 
5.275289535522461

>  <fragmenstein_outcome>  (1101) 
too moved

>  <fragmenstein_mode>  (1101) 
expansion

>  <fragmenstein_error>  (1101) 


$$$$
C63105-P13
     RDKit          3D

 34 37  0  0  0  0  0  0  0  0999 V2000
   11.1720   -0.4356   14.4580 C   0  0  0  0  0  0  0  0  0  0  0  0
   10.2004    0.2829   15.3249 C   0  0  0  0  0  0  0  0  0  0  0  0
   10.2146    1.6108   15.6753 C   0  0  0  0  0  0  0  0  0  0  0  0
    9.3087    1.8705   16.7437 C   0  0  0  0  0  0  0  0  0  0  0  0
    8.6174    0.7432   17.1748 C   0  0  0  0  0  0  0  0  0  0  0  0
    7.7866    0.7843   18.5962 C   0  0  0  0  0  0  0  0  0  0  0  0
    8.0286    1.8680   19.2825 N   0  0  0  0  0  0  0  0  0  0  0  0
    7.1807    1.8346   20.3103 O   0  0  0  0  0  0  0  0  0  0  0  0
    6.1379    0.5269   20.3366 C   0  0  0  0  0  0  0  0  0  0  0  0
    4.4335    0.9160   21.4254 C   0  0  0  0  0  0  0  0  0  0  0  0
    4.4442    1.5587   22.9922 C   0  0  0  0  0  0  0  0  0  0  0  0
    3.4967    2.3120   23.8536 C   0  0  0  0  0  0  0  0  0  0  0  0
    2.4945    2.9816   23.2113 C   0  0  0  0  0  0  0  0  0  0  0  0
    2.3171    2.6002   21.8849 C   0  0  0  0  0  0  0  0  0  0  0  0
    3.0125    1.4716   21.1612 N   0  0  0  0  0  0  0  0  0  0  0  0
    1.5949    3.8007   23.8159 O   0  0  0  0  0  0  0  0  0  0  0  0
    1.9280    4.1855   25.1566 C   0  0  0  0  0  0  0  0  0  0  0  0
    2.5129    3.0553   25.9957 C   0  0  0  0  0  0  0  0  0  0  0  0
    3.7636    2.5163   25.3122 C   0  0  0  0  0  0  0  0  0  0  0  0
    6.9200   -0.1032   19.3089 N   0  0  0  0  0  0  0  0  0  0  0  0
    8.8429   -0.4883   16.0149 S   0  0  0  0  0  0  0  0  0  0  0  0
   12.1796   -0.3364   14.8780 H   0  0  0  0  0  0  0  0  0  0  0  0
   10.9608   -1.5067   14.3882 H   0  0  0  0  0  0  0  0  0  0  0  0
   11.1922    0.0012   13.4554 H   0  0  0  0  0  0  0  0  0  0  0  0
   10.9111    2.3387   15.2780 H   0  0  0  0  0  0  0  0  0  0  0  0
    9.2443    2.8318   17.2425 H   0  0  0  0  0  0  0  0  0  0  0  0
    5.2191    2.2308   23.1129 H   0  0  0  0  0  0  0  0  0  0  0  0
    1.5372    3.0448   21.2659 H   0  0  0  0  0  0  0  0  0  0  0  0
    1.0079    4.5499   25.6258 H   0  0  0  0  0  0  0  0  0  0  0  0
    2.6223    5.0336   25.1079 H   0  0  0  0  0  0  0  0  0  0  0  0
    1.7700    2.2585   26.1003 H   0  0  0  0  0  0  0  0  0  0  0  0
    2.7544    3.4083   27.0040 H   0  0  0  0  0  0  0  0  0  0  0  0
    4.5874    3.2303   25.4278 H   0  0  0  0  0  0  0  0  0  0  0  0
    4.0630    1.5714   25.7785 H   0  0  0  0  0  0  0  0  0  0  0  0
  1  2  1  0
  2  3  2  0
  3  4  1  0
  4  5  2  0
  5  6  1  0
  6  7  2  0
  7  8  1  0
  8  9  1  0
  9 10  1  0
 10 11  2  0
 11 12  1  0
 12 13  2  0
 13 14  1  0
 14 15  2  0
 13 16  1  0
 16 17  1  0
 17 18  1  0
 18 19  1  0
  9 20  2  0
  5 21  1  0
 21  2  1  0
 20  6  1  0
 15 10  1  0
 19 12  1  0
  1 22  1  0
  1 23  1  0
  1 24  1  0
  3 25  1  0
  4 26  1  0
 11 27  1  0
 14 28  1  0
 17 29  1  0
 17 30  1  0
 18 31  1  0
 18 32  1  0
 19 33  1  0
 19 34  1  0
M  END
>  <Energy>  (1102) 
413.88566704193755

>  <compound_id>  (1102) 
63105

>  <target_id>  (1102) 
1

>  <reference_id>  (1102) 
13

>  <inspiration_ids>  (1102) 
[120, 13]

>  <energy_score>  (1102) 
265.6050152818368

>  <distance_score>  (1102) 
5.860636137212004

>  <path>  (1102) 
/opt/xchem-fragalysis-2/maxwin/BulkDock/SCRATCH/511022/C63105-P13/C63105-P13.minimised.mol

>  <scratch_subdir>  (1102) 
/opt/xchem-fragalysis-2/maxwin/BulkDock/SCRATCH/511022/C63105-P13

>  <fragmenstein_runtime>  (1102) 
5.009478569030762

>  <fragmenstein_outcome>  (1102) 
too moved

>  <fragmenstein_mode>  (1102) 
expansion

>  <fragmenstein_error>  (1102) 


$$$$
C63108-P120
     RDKit          3D

 36 36  0  0  0  0  0  0  0  0999 V2000
    6.3581    6.2321   19.4234 C   0  0  0  0  0  0  0  0  0  0  0  0
    6.8580    5.4072   20.4784 O   0  0  0  0  0  0  0  0  0  0  0  0
    6.1595    5.5475   21.6412 C   0  0  0  0  0  0  0  0  0  0  0  0
    5.2295    6.3083   21.8382 O   0  0  0  0  0  0  0  0  0  0  0  0
    6.7660    4.6336   22.6320 C   0  0  0  0  0  0  0  0  0  0  0  0
    6.2930    4.3540   23.8543 C   0  0  0  0  0  0  0  0  0  0  0  0
    5.0726    4.8846   24.5667 C   0  0  0  0  0  0  0  0  0  0  0  0
    3.8338    3.5534   24.8109 S   0  0  0  0  0  0  0  0  0  0  0  0
    2.8308    4.3262   26.1104 C   0  0  0  0  0  0  0  0  0  0  0  0
    3.2483    3.7930   27.4859 C   0  0  0  0  0  0  0  0  0  0  0  0
    3.9206    4.4796   28.2007 O   0  0  0  0  0  0  0  0  0  0  0  0
    2.6758    2.4928   27.7014 N   0  0  0  0  0  0  0  0  0  0  0  0
    2.6515    1.6518   28.8745 C   0  0  0  0  0  0  0  0  0  0  0  0
    3.8678    0.7379   28.9511 C   0  0  0  0  0  0  0  0  0  0  0  0
    1.3518    0.8898   28.8669 C   0  0  0  0  0  0  0  0  0  0  0  0
    0.9704   -0.2079   28.1149 C   0  0  0  0  0  0  0  0  0  0  0  0
   -0.3711   -0.6106   28.3789 C   0  0  0  0  0  0  0  0  0  0  0  0
   -0.9751    0.1950   29.3142 C   0  0  0  0  0  0  0  0  0  0  0  0
    0.0833    1.3931   29.9060 S   0  0  0  0  0  0  0  0  0  0  0  0
    6.4546    7.2903   19.6854 H   0  0  0  0  0  0  0  0  0  0  0  0
    5.3172    5.9788   19.1981 H   0  0  0  0  0  0  0  0  0  0  0  0
    6.9607    6.0400   18.5313 H   0  0  0  0  0  0  0  0  0  0  0  0
    7.6864    4.1507   22.3233 H   0  0  0  0  0  0  0  0  0  0  0  0
    6.8996    3.6886   24.4645 H   0  0  0  0  0  0  0  0  0  0  0  0
    5.3905    5.2586   25.5459 H   0  0  0  0  0  0  0  0  0  0  0  0
    4.5913    5.7082   24.0384 H   0  0  0  0  0  0  0  0  0  0  0  0
    1.7744    4.0956   25.9353 H   0  0  0  0  0  0  0  0  0  0  0  0
    2.9252    5.4167   26.0936 H   0  0  0  0  0  0  0  0  0  0  0  0
    2.2342    2.1794   26.8432 H   0  0  0  0  0  0  0  0  0  0  0  0
    2.7000    2.3261   29.7388 H   0  0  0  0  0  0  0  0  0  0  0  0
    3.8681    0.1712   29.8889 H   0  0  0  0  0  0  0  0  0  0  0  0
    4.7961    1.3175   28.9036 H   0  0  0  0  0  0  0  0  0  0  0  0
    3.8877    0.0124   28.1328 H   0  0  0  0  0  0  0  0  0  0  0  0
    1.6210   -0.7051   27.4018 H   0  0  0  0  0  0  0  0  0  0  0  0
   -0.8654   -1.4497   27.9052 H   0  0  0  0  0  0  0  0  0  0  0  0
   -1.9833    0.1264   29.6935 H   0  0  0  0  0  0  0  0  0  0  0  0
  1  2  1  0
  2  3  1  0
  3  4  2  0
  3  5  1  0
  5  6  2  3
  6  7  1  0
  7  8  1  0
  8  9  1  0
  9 10  1  0
 10 11  2  0
 10 12  1  0
 12 13  1  0
 13 14  1  0
 13 15  1  0
 15 16  2  0
 16 17  1  0
 17 18  2  0
 18 19  1  0
 19 15  1  0
  1 20  1  0
  1 21  1  0
  1 22  1  0
  5 23  1  0
  6 24  1  0
  7 25  1  0
  7 26  1  0
  9 27  1  0
  9 28  1  0
 12 29  1  0
 13 30  1  0
 14 31  1  0
 14 32  1  0
 14 33  1  0
 16 34  1  0
 17 35  1  0
 18 36  1  0
M  END
>  <Energy>  (1103) 
2.9228133039895727

>  <compound_id>  (1103) 
63108

>  <target_id>  (1103) 
1

>  <reference_id>  (1103) 
120

>  <inspiration_ids>  (1103) 
[120, 13]

>  <energy_score>  (1103) 
-34.13357886156095

>  <distance_score>  (1103) 
8.470601641463041

>  <path>  (1103) 
/opt/xchem-fragalysis-2/maxwin/BulkDock/SCRATCH/511022/C63108-P120/C63108-P120.minimised.mol

>  <scratch_subdir>  (1103) 
/opt/xchem-fragalysis-2/maxwin/BulkDock/SCRATCH/511022/C63108-P120

>  <fragmenstein_runtime>  (1103) 
8.32834768295288

>  <fragmenstein_outcome>  (1103) 
too moved

>  <fragmenstein_mode>  (1103) 
expansion

>  <fragmenstein_error>  (1103) 


$$$$
C63108-P13
     RDKit          3D

 36 36  0  0  0  0  0  0  0  0999 V2000
    0.3856    4.3131   20.9771 C   0  0  0  0  0  0  0  0  0  0  0  0
    1.3606    4.4875   22.0028 O   0  0  0  0  0  0  0  0  0  0  0  0
    2.3076    5.4045   21.7000 C   0  0  0  0  0  0  0  0  0  0  0  0
    2.3522    6.0798   20.6804 O   0  0  0  0  0  0  0  0  0  0  0  0
    3.2719    5.6051   22.8041 C   0  0  0  0  0  0  0  0  0  0  0  0
    3.6228    4.7912   23.8151 C   0  0  0  0  0  0  0  0  0  0  0  0
    3.1543    3.3987   24.1185 C   0  0  0  0  0  0  0  0  0  0  0  0
    2.2558    3.3402   25.7080 S   0  0  0  0  0  0  0  0  0  0  0  0
    3.6885    3.3058   26.8524 C   0  0  0  0  0  0  0  0  0  0  0  0
    3.3484    2.8308   28.2796 C   0  0  0  0  0  0  0  0  0  0  0  0
    4.1698    2.9845   29.1380 O   0  0  0  0  0  0  0  0  0  0  0  0
    2.0614    2.2213   28.3214 N   0  0  0  0  0  0  0  0  0  0  0  0
    1.3816    1.5161   29.3791 C   0  0  0  0  0  0  0  0  0  0  0  0
    1.0101    2.4522   30.5244 C   0  0  0  0  0  0  0  0  0  0  0  0
    0.1657    0.8764   28.7637 C   0  0  0  0  0  0  0  0  0  0  0  0
   -0.8509    1.4795   28.0429 C   0  0  0  0  0  0  0  0  0  0  0  0
   -1.7908    0.5430   27.5391 C   0  0  0  0  0  0  0  0  0  0  0  0
   -1.4873   -0.7427   27.9209 C   0  0  0  0  0  0  0  0  0  0  0  0
   -0.0672   -0.8178   28.8675 S   0  0  0  0  0  0  0  0  0  0  0  0
   -0.3383    3.5693   21.3212 H   0  0  0  0  0  0  0  0  0  0  0  0
    0.8554    3.9392   20.0617 H   0  0  0  0  0  0  0  0  0  0  0  0
   -0.1478    5.2498   20.7866 H   0  0  0  0  0  0  0  0  0  0  0  0
    3.7670    6.5700   22.7254 H   0  0  0  0  0  0  0  0  0  0  0  0
    4.3613    5.1870   24.5105 H   0  0  0  0  0  0  0  0  0  0  0  0
    2.4980    3.0009   23.3481 H   0  0  0  0  0  0  0  0  0  0  0  0
    4.0073    2.7157   24.1654 H   0  0  0  0  0  0  0  0  0  0  0  0
    4.4489    2.6217   26.4629 H   0  0  0  0  0  0  0  0  0  0  0  0
    4.1004    4.3170   26.9204 H   0  0  0  0  0  0  0  0  0  0  0  0
    1.6763    2.1967   27.3789 H   0  0  0  0  0  0  0  0  0  0  0  0
    2.0828    0.7633   29.7581 H   0  0  0  0  0  0  0  0  0  0  0  0
    0.3839    3.2837   30.1810 H   0  0  0  0  0  0  0  0  0  0  0  0
    1.9068    2.8878   30.9782 H   0  0  0  0  0  0  0  0  0  0  0  0
    0.4612    1.9176   31.3072 H   0  0  0  0  0  0  0  0  0  0  0  0
   -0.9027    2.5481   27.8615 H   0  0  0  0  0  0  0  0  0  0  0  0
   -2.6446    0.7990   26.9242 H   0  0  0  0  0  0  0  0  0  0  0  0
   -2.0243   -1.6475   27.6685 H   0  0  0  0  0  0  0  0  0  0  0  0
  1  2  1  0
  2  3  1  0
  3  4  2  0
  3  5  1  0
  5  6  2  3
  6  7  1  0
  7  8  1  0
  8  9  1  0
  9 10  1  0
 10 11  2  0
 10 12  1  0
 12 13  1  0
 13 14  1  0
 13 15  1  0
 15 16  2  0
 16 17  1  0
 17 18  2  0
 18 19  1  0
 19 15  1  0
  1 20  1  0
  1 21  1  0
  1 22  1  0
  5 23  1  0
  6 24  1  0
  7 25  1  0
  7 26  1  0
  9 27  1  0
  9 28  1  0
 12 29  1  0
 13 30  1  0
 14 31  1  0
 14 32  1  0
 14 33  1  0
 16 34  1  0
 17 35  1  0
 18 36  1  0
M  END
>  <Energy>  (1104) 
5.0103515293269876

>  <compound_id>  (1104) 
63108

>  <target_id>  (1104) 
1

>  <reference_id>  (1104) 
13

>  <inspiration_ids>  (1104) 
[120, 13]

>  <energy_score>  (1104) 
-32.046040636223324

>  <distance_score>  (1104) 
10.103998060985623

>  <path>  (1104) 
/opt/xchem-fragalysis-2/maxwin/BulkDock/SCRATCH/511022/C63108-P13/C63108-P13.minimised.mol

>  <scratch_subdir>  (1104) 
/opt/xchem-fragalysis-2/maxwin/BulkDock/SCRATCH/511022/C63108-P13

>  <fragmenstein_runtime>  (1104) 
9.554430961608887

>  <fragmenstein_outcome>  (1104) 
too moved

>  <fragmenstein_mode>  (1104) 
expansion

>  <fragmenstein_error>  (1104) 


$$$$
C63124-P120
     RDKit          3D

 44 44  0  0  0  0  0  0  0  0999 V2000
    5.3707   -2.2088   22.6184 C   0  0  0  0  0  0  0  0  0  0  0  0
    4.3506   -1.4722   23.4214 C   0  0  0  0  0  0  0  0  0  0  0  0
    4.4258    0.1771   22.1109 C   0  0  0  0  0  0  0  0  0  0  0  0
    3.6176   -1.6346   25.2665 C   0  0  0  0  0  0  0  0  0  0  0  0
    2.6387   -2.6368   26.5764 N   0  0  0  0  0  0  0  0  0  0  0  0
    2.7395   -2.9784   28.2047 C   0  0  0  0  0  0  0  0  0  0  0  0
    3.4197   -2.6043   29.0405 O   0  0  0  0  0  0  0  0  0  0  0  0
    1.6883   -3.8223   28.4503 O   0  0  0  0  0  0  0  0  0  0  0  0
    1.1587   -3.9264   29.8022 C   0  0  0  0  0  0  0  0  0  0  0  0
    2.1765   -4.4849   30.8033 C   0  0  0  0  0  0  0  0  0  0  0  0
    0.6071   -2.5750   30.2828 C   0  0  0  0  0  0  0  0  0  0  0  0
   -0.0242   -4.8972   29.6988 C   0  0  0  0  0  0  0  0  0  0  0  0
    3.4452   -1.5839   26.0181 C   0  0  0  0  0  0  0  0  0  0  0  0
    5.1337   -1.7255   26.8796 C   0  0  0  0  0  0  0  0  0  0  0  0
    2.3649   -0.2352   26.7988 C   0  0  0  0  0  0  0  0  0  0  0  0
    1.1092   -0.4269   27.3985 C   0  0  0  0  0  0  0  0  0  0  0  0
    0.5339    0.7568   27.9391 C   0  0  0  0  0  0  0  0  0  0  0  0
    1.3797    1.8299   27.8149 C   0  0  0  0  0  0  0  0  0  0  0  0
    2.8623    1.4012   27.0869 S   0  0  0  0  0  0  0  0  0  0  0  0
    5.7451   -1.5624   21.8379 H   0  0  0  0  0  0  0  0  0  0  0  0
    5.3352   -2.9005   21.7919 H   0  0  0  0  0  0  0  0  0  0  0  0
    6.0555   -2.5859   23.3890 H   0  0  0  0  0  0  0  0  0  0  0  0
    5.1636   -1.3395   24.1535 H   0  0  0  0  0  0  0  0  0  0  0  0
    3.5782    0.6478   21.5936 H   0  0  0  0  0  0  0  0  0  0  0  0
    4.3972    1.0452   22.8276 H   0  0  0  0  0  0  0  0  0  0  0  0
    5.2475    0.0201   21.4555 H   0  0  0  0  0  0  0  0  0  0  0  0
    2.6179   -1.5592   24.5404 H   0  0  0  0  0  0  0  0  0  0  0  0
    4.0042   -2.7991   24.9122 H   0  0  0  0  0  0  0  0  0  0  0  0
    2.7277   -5.3247   30.3785 H   0  0  0  0  0  0  0  0  0  0  0  0
    1.6880   -4.8163   31.7262 H   0  0  0  0  0  0  0  0  0  0  0  0
    2.9207   -3.7365   31.0928 H   0  0  0  0  0  0  0  0  0  0  0  0
    1.3918   -1.8161   30.3594 H   0  0  0  0  0  0  0  0  0  0  0  0
   -0.1408   -2.1886   29.5823 H   0  0  0  0  0  0  0  0  0  0  0  0
    0.1360   -2.6652   31.2678 H   0  0  0  0  0  0  0  0  0  0  0  0
    0.2989   -5.8970   29.3987 H   0  0  0  0  0  0  0  0  0  0  0  0
   -0.7312   -4.5592   28.9328 H   0  0  0  0  0  0  0  0  0  0  0  0
   -0.5554   -4.9888   30.6522 H   0  0  0  0  0  0  0  0  0  0  0  0
    3.5607   -1.2384   27.1492 H   0  0  0  0  0  0  0  0  0  0  0  0
    5.9357   -1.7399   26.1399 H   0  0  0  0  0  0  0  0  0  0  0  0
    5.3246   -0.8791   27.5598 H   0  0  0  0  0  0  0  0  0  0  0  0
    5.1635   -2.6312   27.4885 H   0  0  0  0  0  0  0  0  0  0  0  0
    0.6090   -1.3874   27.4064 H   0  0  0  0  0  0  0  0  0  0  0  0
   -0.4412    0.8071   28.4058 H   0  0  0  0  0  0  0  0  0  0  0  0
    1.2134    2.8454   28.1468 H   0  0  0  0  0  0  0  0  0  0  0  0
  1  2  1  0
  2  3  1  0
  2  4  1  0
  4  5  1  0
  5  6  1  0
  6  7  2  0
  6  8  1  0
  8  9  1  0
  9 10  1  0
  9 11  1  0
  9 12  1  0
  5 13  1  0
 13 14  1  0
 13 15  1  0
 15 16  2  0
 16 17  1  0
 17 18  2  0
 18 19  1  0
 19 15  1  0
  1 20  1  0
  1 21  1  0
  1 22  1  0
  2 23  1  0
  3 24  1  0
  3 25  1  0
  3 26  1  0
  4 27  1  0
  4 28  1  0
 10 29  1  0
 10 30  1  0
 10 31  1  0
 11 32  1  0
 11 33  1  0
 11 34  1  0
 12 35  1  0
 12 36  1  0
 12 37  1  0
 13 38  1  0
 14 39  1  0
 14 40  1  0
 14 41  1  0
 16 42  1  0
 17 43  1  0
 18 44  1  0
M  END
>  <Energy>  (1105) 
990.1176767012654

>  <compound_id>  (1105) 
63124

>  <target_id>  (1105) 
1

>  <reference_id>  (1105) 
120

>  <inspiration_ids>  (1105) 
[120, 13]

>  <energy_score>  (1105) 
958.1285686977004

>  <distance_score>  (1105) 
7.644115190749219

>  <path>  (1105) 
/opt/xchem-fragalysis-2/maxwin/BulkDock/SCRATCH/511022/C63124-P120/C63124-P120.minimised.mol

>  <scratch_subdir>  (1105) 
/opt/xchem-fragalysis-2/maxwin/BulkDock/SCRATCH/511022/C63124-P120

>  <fragmenstein_runtime>  (1105) 
17.55529761314392

>  <fragmenstein_outcome>  (1105) 
too moved

>  <fragmenstein_mode>  (1105) 
expansion

>  <fragmenstein_error>  (1105) 


$$$$
C63124-P13
     RDKit          3D

 44 44  0  0  0  0  0  0  0  0999 V2000
   12.7958    1.2700   23.5268 C   0  0  0  0  0  0  0  0  0  0  0  0
   11.4093    1.9308   23.6525 C   0  0  0  0  0  0  0  0  0  0  0  0
   11.5313    3.3917   23.2085 C   0  0  0  0  0  0  0  0  0  0  0  0
   10.6365    1.7037   25.3807 C   0  0  0  0  0  0  0  0  0  0  0  0
   11.1219    0.6217   25.9290 N   0  0  0  0  0  0  0  0  0  0  0  0
   11.6111    0.2332   27.3239 C   0  0  0  0  0  0  0  0  0  0  0  0
   11.5897    0.7813   28.3382 O   0  0  0  0  0  0  0  0  0  0  0  0
   12.1308   -1.0160   27.1568 O   0  0  0  0  0  0  0  0  0  0  0  0
   12.6812   -1.7638   28.2693 C   0  0  0  0  0  0  0  0  0  0  0  0
   13.1377   -3.0958   27.6543 C   0  0  0  0  0  0  0  0  0  0  0  0
   13.9027   -1.0570   28.8671 C   0  0  0  0  0  0  0  0  0  0  0  0
   11.6117   -2.0555   29.3278 C   0  0  0  0  0  0  0  0  0  0  0  0
   10.0722    2.2392   25.5699 C   0  0  0  0  0  0  0  0  0  0  0  0
   10.4994    3.5790   26.6168 C   0  0  0  0  0  0  0  0  0  0  0  0
    8.4987    1.7839   26.3685 C   0  0  0  0  0  0  0  0  0  0  0  0
    8.0294    0.5215   26.7023 C   0  0  0  0  0  0  0  0  0  0  0  0
    6.6710    0.5436   27.1558 C   0  0  0  0  0  0  0  0  0  0  0  0
    6.1456    1.8157   27.1661 C   0  0  0  0  0  0  0  0  0  0  0  0
    7.2786    2.9797   26.6243 S   0  0  0  0  0  0  0  0  0  0  0  0
   13.5378    1.8072   24.1279 H   0  0  0  0  0  0  0  0  0  0  0  0
   12.7855    0.2347   23.8754 H   0  0  0  0  0  0  0  0  0  0  0  0
   13.1443    1.2799   22.4900 H   0  0  0  0  0  0  0  0  0  0  0  0
   10.7083    1.4538   22.9545 H   0  0  0  0  0  0  0  0  0  0  0  0
   10.5593    3.8907   23.1808 H   0  0  0  0  0  0  0  0  0  0  0  0
   12.1791    3.9536   23.8887 H   0  0  0  0  0  0  0  0  0  0  0  0
   11.9582    3.4569   22.2017 H   0  0  0  0  0  0  0  0  0  0  0  0
   10.1538    0.7557   24.6860 H   0  0  0  0  0  0  0  0  0  0  0  0
   11.8095    2.0637   25.6179 H   0  0  0  0  0  0  0  0  0  0  0  0
   13.8783   -2.9265   26.8639 H   0  0  0  0  0  0  0  0  0  0  0  0
   13.5783   -3.7609   28.4044 H   0  0  0  0  0  0  0  0  0  0  0  0
   12.2958   -3.6158   27.1822 H   0  0  0  0  0  0  0  0  0  0  0  0
   13.6284   -0.1324   29.3839 H   0  0  0  0  0  0  0  0  0  0  0  0
   14.4176   -1.6964   29.5923 H   0  0  0  0  0  0  0  0  0  0  0  0
   14.6137   -0.7785   28.0812 H   0  0  0  0  0  0  0  0  0  0  0  0
   10.7127   -2.4787   28.8657 H   0  0  0  0  0  0  0  0  0  0  0  0
   11.2969   -1.1482   29.8524 H   0  0  0  0  0  0  0  0  0  0  0  0
   11.9796   -2.7586   30.0828 H   0  0  0  0  0  0  0  0  0  0  0  0
    9.4551    2.6644   24.5716 H   0  0  0  0  0  0  0  0  0  0  0  0
   10.4632    3.2509   27.6602 H   0  0  0  0  0  0  0  0  0  0  0  0
   11.4988    3.9544   26.3719 H   0  0  0  0  0  0  0  0  0  0  0  0
    9.7841    4.3898   26.4526 H   0  0  0  0  0  0  0  0  0  0  0  0
    8.6149   -0.3852   26.5942 H   0  0  0  0  0  0  0  0  0  0  0  0
    6.1135   -0.3373   27.4504 H   0  0  0  0  0  0  0  0  0  0  0  0
    5.1498    2.1188   27.4593 H   0  0  0  0  0  0  0  0  0  0  0  0
  1  2  1  0
  2  3  1  0
  2  4  1  0
  4  5  1  0
  5  6  1  0
  6  7  2  0
  6  8  1  0
  8  9  1  0
  9 10  1  0
  9 11  1  0
  9 12  1  0
  5 13  1  0
 13 14  1  0
 13 15  1  0
 15 16  2  0
 16 17  1  0
 17 18  2  0
 18 19  1  0
 19 15  1  0
  1 20  1  0
  1 21  1  0
  1 22  1  0
  2 23  1  0
  3 24  1  0
  3 25  1  0
  3 26  1  0
  4 27  1  0
  4 28  1  0
 10 29  1  0
 10 30  1  0
 10 31  1  0
 11 32  1  0
 11 33  1  0
 11 34  1  0
 12 35  1  0
 12 36  1  0
 12 37  1  0
 13 38  1  0
 14 39  1  0
 14 40  1  0
 14 41  1  0
 16 42  1  0
 17 43  1  0
 18 44  1  0
M  END
>  <Energy>  (1106) 
747.56408804630769

>  <compound_id>  (1106) 
63124

>  <target_id>  (1106) 
1

>  <reference_id>  (1106) 
13

>  <inspiration_ids>  (1106) 
[120, 13]

>  <energy_score>  (1106) 
715.5749800427465

>  <distance_score>  (1106) 
10.254572218420702

>  <path>  (1106) 
/opt/xchem-fragalysis-2/maxwin/BulkDock/SCRATCH/511022/C63124-P13/C63124-P13.minimised.mol

>  <scratch_subdir>  (1106) 
/opt/xchem-fragalysis-2/maxwin/BulkDock/SCRATCH/511022/C63124-P13

>  <fragmenstein_runtime>  (1106) 
17.74535346031189

>  <fragmenstein_outcome>  (1106) 
too moved

>  <fragmenstein_mode>  (1106) 
expansion

>  <fragmenstein_error>  (1106) 


$$$$
C16107-P65
     RDKit          3D

 46 49  0  0  0  0  0  0  0  0999 V2000
   -2.0368    2.8767   13.9822 O   0  0  0  0  0  0  0  0  0  0  0  0
   -1.0636    2.3603   14.4238 C   0  0  0  0  0  0  0  0  0  0  0  0
   -0.4103    2.5213   15.7051 N   0  0  0  0  0  0  0  0  0  0  0  0
   -0.6874    3.4386   16.8145 C   0  0  0  0  0  0  0  0  0  0  0  0
    0.3472    3.5062   17.9129 C   0  0  0  0  0  0  0  0  0  0  0  0
    1.5457    2.9510   17.9062 N   0  0  0  0  0  0  0  0  0  0  0  0
    2.1151    3.1001   19.1549 N   0  0  0  0  0  0  0  0  0  0  0  0
    1.2561    3.7274   19.9214 C   0  0  0  0  0  0  0  0  0  0  0  0
    0.2032    4.1325   19.1433 N   0  0  0  0  0  0  0  0  0  0  0  0
   -0.7725    5.0783   19.6454 C   0  0  0  0  0  0  0  0  0  0  0  0
   -0.7840    5.1722   21.1932 C   0  0  0  0  0  0  0  0  0  0  0  0
    0.5601    5.1756   21.7810 N   0  0  0  0  0  0  0  0  0  0  0  0
    1.3015    3.9657   21.3893 C   0  0  0  0  0  0  0  0  0  0  0  0
   -0.3090    1.4081   13.3353 C   0  0  0  0  0  0  0  0  0  0  0  0
   -1.0570   -0.1652   12.3943 C   0  0  0  0  0  0  0  0  0  0  0  0
   -2.6130    0.0568   12.2316 C   0  0  0  0  0  0  0  0  0  0  0  0
   -4.0396   -0.3762   10.7515 C   0  0  0  0  0  0  0  0  0  0  0  0
   -3.7303   -1.2093    9.4295 N   0  0  0  0  0  0  0  0  0  0  0  0
   -2.1717   -1.2585    9.3173 C   0  0  0  0  0  0  0  0  0  0  0  0
   -0.9019   -1.0171   10.9689 C   0  0  0  0  0  0  0  0  0  0  0  0
    1.2486    1.4485   13.3962 C   0  0  0  0  0  0  0  0  0  0  0  0
    0.6377    2.6426   12.7836 C   0  0  0  0  0  0  0  0  0  0  0  0
    0.3528    1.8586   15.7739 H   0  0  0  0  0  0  0  0  0  0  0  0
   -1.6576    3.1474   17.2145 H   0  0  0  0  0  0  0  0  0  0  0  0
   -0.8100    4.4345   16.3748 H   0  0  0  0  0  0  0  0  0  0  0  0
   -0.4870    6.0489   19.2218 H   0  0  0  0  0  0  0  0  0  0  0  0
   -1.7596    4.8187   19.2560 H   0  0  0  0  0  0  0  0  0  0  0  0
   -1.3597    4.3565   21.6376 H   0  0  0  0  0  0  0  0  0  0  0  0
   -1.2988    6.0966   21.4791 H   0  0  0  0  0  0  0  0  0  0  0  0
    0.4960    5.2095   22.7977 H   0  0  0  0  0  0  0  0  0  0  0  0
    0.8835    3.0978   21.9084 H   0  0  0  0  0  0  0  0  0  0  0  0
    2.3385    4.0799   21.7165 H   0  0  0  0  0  0  0  0  0  0  0  0
   -0.3241   -0.8096   12.8680 H   0  0  0  0  0  0  0  0  0  0  0  0
   -2.4677    1.0876   12.5304 H   0  0  0  0  0  0  0  0  0  0  0  0
   -2.9297   -0.6094   12.9922 H   0  0  0  0  0  0  0  0  0  0  0  0
   -4.1432    0.3652    9.9281 H   0  0  0  0  0  0  0  0  0  0  0  0
   -4.7545   -0.5608   11.5062 H   0  0  0  0  0  0  0  0  0  0  0  0
   -4.1477   -0.7905    8.5981 H   0  0  0  0  0  0  0  0  0  0  0  0
   -2.0654   -2.1678    8.7511 H   0  0  0  0  0  0  0  0  0  0  0  0
   -2.0985   -0.5311    8.5031 H   0  0  0  0  0  0  0  0  0  0  0  0
    0.1403   -1.3148   10.8421 H   0  0  0  0  0  0  0  0  0  0  0  0
   -1.1378   -0.0322   11.1229 H   0  0  0  0  0  0  0  0  0  0  0  0
    1.7440    1.6502   14.3390 H   0  0  0  0  0  0  0  0  0  0  0  0
    1.8302    0.8082   12.7464 H   0  0  0  0  0  0  0  0  0  0  0  0
    0.6404    2.9642   11.7621 H   0  0  0  0  0  0  0  0  0  0  0  0
    0.7218    3.5614   13.3733 H   0  0  0  0  0  0  0  0  0  0  0  0
  1  2  2  0
  2  3  1  0
  3  4  1  0
  4  5  1  0
  5  6  2  0
  6  7  1  0
  7  8  2  0
  8  9  1  0
  9 10  1  0
 10 11  1  0
 11 12  1  0
 12 13  1  0
  2 14  1  0
 14 15  1  0
 15 16  1  0
 16 17  1  0
 17 18  1  0
 18 19  1  0
 19 20  1  0
 14 21  1  0
 21 22  1  0
  9  5  1  0
 22 14  1  0
 13  8  1  0
 20 15  1  0
  3 23  1  0
  4 24  1  0
  4 25  1  0
 10 26  1  0
 10 27  1  0
 11 28  1  0
 11 29  1  0
 12 30  1  0
 13 31  1  0
 13 32  1  0
 15 33  1  0
 16 34  1  0
 16 35  1  0
 17 36  1  0
 17 37  1  0
 18 38  1  0
 19 39  1  0
 19 40  1  0
 20 41  1  0
 20 42  1  0
 21 43  1  0
 21 44  1  0
 22 45  1  0
 22 46  1  0
M  END
>  <Energy>  (1107) 
482.42186941554172

>  <compound_id>  (1107) 
16107

>  <target_id>  (1107) 
1

>  <reference_id>  (1107) 
65

>  <inspiration_ids>  (1107) 
[65, 70]

>  <energy_score>  (1107) 
428.07549277297903

>  <distance_score>  (1107) 
7.661087445217707

>  <path>  (1107) 
/opt/xchem-fragalysis-2/maxwin/BulkDock/SCRATCH/511022/C16107-P65/C16107-P65.minimised.mol

>  <scratch_subdir>  (1107) 
/opt/xchem-fragalysis-2/maxwin/BulkDock/SCRATCH/511022/C16107-P65

>  <fragmenstein_runtime>  (1107) 
12.806544303894043

>  <fragmenstein_outcome>  (1107) 
too moved

>  <fragmenstein_mode>  (1107) 
expansion

>  <fragmenstein_error>  (1107) 


$$$$
C16107-P70
     RDKit          3D

 46 49  0  0  0  0  0  0  0  0999 V2000
   -4.4556    2.6148   18.2860 O   0  0  0  0  0  0  0  0  0  0  0  0
   -3.4836    2.0675   17.7436 C   0  0  0  0  0  0  0  0  0  0  0  0
   -1.9688    2.6502   17.4154 N   0  0  0  0  0  0  0  0  0  0  0  0
   -1.2489    4.1122   17.8114 C   0  0  0  0  0  0  0  0  0  0  0  0
   -1.4306    4.9155   19.1158 C   0  0  0  0  0  0  0  0  0  0  0  0
   -2.4308    5.7312   19.4133 N   0  0  0  0  0  0  0  0  0  0  0  0
   -2.3832    6.0325   20.7647 N   0  0  0  0  0  0  0  0  0  0  0  0
   -1.3359    5.4271   21.2719 C   0  0  0  0  0  0  0  0  0  0  0  0
   -0.5985    4.9019   20.2357 N   0  0  0  0  0  0  0  0  0  0  0  0
    0.6636    4.2300   20.4667 C   0  0  0  0  0  0  0  0  0  0  0  0
    1.0518    4.1397   21.9608 C   0  0  0  0  0  0  0  0  0  0  0  0
   -0.0942    4.0315   22.8778 N   0  0  0  0  0  0  0  0  0  0  0  0
   -0.9742    5.2116   22.7023 C   0  0  0  0  0  0  0  0  0  0  0  0
   -3.8952    0.3293   17.3410 C   0  0  0  0  0  0  0  0  0  0  0  0
   -4.8099    0.9886   15.8016 C   0  0  0  0  0  0  0  0  0  0  0  0
   -5.9068    0.1230   14.5220 C   0  0  0  0  0  0  0  0  0  0  0  0
   -5.9709    0.3188   12.6843 C   0  0  0  0  0  0  0  0  0  0  0  0
   -4.4863    0.2162   12.0123 N   0  0  0  0  0  0  0  0  0  0  0  0
   -3.1925    0.3494   12.9586 C   0  0  0  0  0  0  0  0  0  0  0  0
   -3.1997    1.3533   14.7269 C   0  0  0  0  0  0  0  0  0  0  0  0
   -2.5635   -1.0950   17.9228 C   0  0  0  0  0  0  0  0  0  0  0  0
   -3.7404   -1.1443   18.6053 C   0  0  0  0  0  0  0  0  0  0  0  0
   -1.4468    1.9613   16.8886 H   0  0  0  0  0  0  0  0  0  0  0  0
   -0.1986    3.7813   17.8226 H   0  0  0  0  0  0  0  0  0  0  0  0
   -1.2326    4.7958   16.9565 H   0  0  0  0  0  0  0  0  0  0  0  0
    1.4262    4.7930   19.9174 H   0  0  0  0  0  0  0  0  0  0  0  0
    0.5942    3.2449   20.0202 H   0  0  0  0  0  0  0  0  0  0  0  0
    1.6359    5.0297   22.2302 H   0  0  0  0  0  0  0  0  0  0  0  0
    1.7213    3.2853   22.1041 H   0  0  0  0  0  0  0  0  0  0  0  0
    0.2393    4.0363   23.8411 H   0  0  0  0  0  0  0  0  0  0  0  0
   -0.4792    6.1085   23.0923 H   0  0  0  0  0  0  0  0  0  0  0  0
   -1.8850    5.0539   23.2894 H   0  0  0  0  0  0  0  0  0  0  0  0
   -5.2333    1.5161   16.7158 H   0  0  0  0  0  0  0  0  0  0  0  0
   -6.1394   -0.9116   14.7699 H   0  0  0  0  0  0  0  0  0  0  0  0
   -6.6065    0.9222   14.5087 H   0  0  0  0  0  0  0  0  0  0  0  0
   -6.3057    1.3445   12.6708 H   0  0  0  0  0  0  0  0  0  0  0  0
   -6.7147   -0.0650   12.0065 H   0  0  0  0  0  0  0  0  0  0  0  0
   -4.3056    0.0423   11.0262 H   0  0  0  0  0  0  0  0  0  0  0  0
   -2.7343   -0.6316   13.0174 H   0  0  0  0  0  0  0  0  0  0  0  0
   -2.1666    0.6090   12.5032 H   0  0  0  0  0  0  0  0  0  0  0  0
   -2.7655    2.3095   14.3688 H   0  0  0  0  0  0  0  0  0  0  0  0
   -2.2822    1.6258   15.2450 H   0  0  0  0  0  0  0  0  0  0  0  0
   -1.4734   -1.1126   18.0869 H   0  0  0  0  0  0  0  0  0  0  0  0
   -2.2330   -2.0208   17.5055 H   0  0  0  0  0  0  0  0  0  0  0  0
   -3.7219   -0.8586   19.5308 H   0  0  0  0  0  0  0  0  0  0  0  0
   -3.9537   -2.1875   18.8268 H   0  0  0  0  0  0  0  0  0  0  0  0
  1  2  2  0
  2  3  1  0
  3  4  1  0
  4  5  1  0
  5  6  2  0
  6  7  1  0
  7  8  2  0
  8  9  1  0
  9 10  1  0
 10 11  1  0
 11 12  1  0
 12 13  1  0
  2 14  1  0
 14 15  1  0
 15 16  1  0
 16 17  1  0
 17 18  1  0
 18 19  1  0
 19 20  1  0
 14 21  1  0
 21 22  1  0
  9  5  1  0
 22 14  1  0
 13  8  1  0
 20 15  1  0
  3 23  1  0
  4 24  1  0
  4 25  1  0
 10 26  1  0
 10 27  1  0
 11 28  1  0
 11 29  1  0
 12 30  1  0
 13 31  1  0
 13 32  1  0
 15 33  1  0
 16 34  1  0
 16 35  1  0
 17 36  1  0
 17 37  1  0
 18 38  1  0
 19 39  1  0
 19 40  1  0
 20 41  1  0
 20 42  1  0
 21 43  1  0
 21 44  1  0
 22 45  1  0
 22 46  1  0
M  END
>  <Energy>  (1108) 
621.17177142779371

>  <compound_id>  (1108) 
16107

>  <target_id>  (1108) 
1

>  <reference_id>  (1108) 
70

>  <inspiration_ids>  (1108) 
[65, 70]

>  <energy_score>  (1108) 
566.8253947852306

>  <distance_score>  (1108) 
7.361847199290598

>  <path>  (1108) 
/opt/xchem-fragalysis-2/maxwin/BulkDock/SCRATCH/511022/C16107-P70/C16107-P70.minimised.mol

>  <scratch_subdir>  (1108) 
/opt/xchem-fragalysis-2/maxwin/BulkDock/SCRATCH/511022/C16107-P70

>  <fragmenstein_runtime>  (1108) 
11.171044826507568

>  <fragmenstein_outcome>  (1108) 
too moved

>  <fragmenstein_mode>  (1108) 
expansion

>  <fragmenstein_error>  (1108) 


$$$$
C14890-P65
     RDKit          3D

 33 35  0  0  0  0  0  0  0  0999 V2000
   -1.7773    2.3661   13.8324 O   0  0  0  0  0  0  0  0  0  0  0  0
   -0.9604    1.6792   13.3618 C   0  0  0  0  0  0  0  0  0  0  0  0
    0.4780    1.8504   13.3015 N   0  0  0  0  0  0  0  0  0  0  0  0
    1.3435    2.8715   13.8902 C   0  0  0  0  0  0  0  0  0  0  0  0
    0.5783    4.1118   14.3930 C   0  0  0  0  0  0  0  0  0  0  0  0
    0.1996    3.8046   15.8423 C   0  0  0  0  0  0  0  0  0  0  0  0
    1.3972    3.1523   16.3595 N   0  0  0  0  0  0  0  0  0  0  0  0
    1.9302    2.3884   15.2252 C   0  0  0  0  0  0  0  0  0  0  0  0
   -1.3804    0.0745   12.6875 N   0  0  0  0  0  0  0  0  0  0  0  0
   -2.6718   -0.6692   12.7008 C   0  0  0  0  0  0  0  0  0  0  0  0
   -4.1957   -0.3311   11.4550 C   0  0  0  0  0  0  0  0  0  0  0  0
   -4.1159   -0.5532    9.9048 N   0  0  0  0  0  0  0  0  0  0  0  0
   -4.7144   -0.9282    8.7526 C   0  0  0  0  0  0  0  0  0  0  0  0
   -3.8164   -0.9386    7.7963 N   0  0  0  0  0  0  0  0  0  0  0  0
   -2.6193   -0.6012    8.3783 N   0  0  0  0  0  0  0  0  0  0  0  0
   -2.8381   -0.3434    9.6574 C   0  0  0  0  0  0  0  0  0  0  0  0
   -1.6987    0.1545   11.3807 C   0  0  0  0  0  0  0  0  0  0  0  0
    0.8916    1.0261   12.8996 H   0  0  0  0  0  0  0  0  0  0  0  0
    2.1092    3.1254   13.1516 H   0  0  0  0  0  0  0  0  0  0  0  0
    1.2600    4.9735   14.3798 H   0  0  0  0  0  0  0  0  0  0  0  0
   -0.2844    4.3790   13.7765 H   0  0  0  0  0  0  0  0  0  0  0  0
   -0.6581    3.1295   15.9099 H   0  0  0  0  0  0  0  0  0  0  0  0
   -0.0318    4.7150   16.4023 H   0  0  0  0  0  0  0  0  0  0  0  0
    1.1392    2.5302   17.1291 H   0  0  0  0  0  0  0  0  0  0  0  0
    3.0017    2.5949   15.1743 H   0  0  0  0  0  0  0  0  0  0  0  0
    1.7273    1.3259   15.3729 H   0  0  0  0  0  0  0  0  0  0  0  0
   -3.1981   -0.4497   13.6034 H   0  0  0  0  0  0  0  0  0  0  0  0
   -2.2660   -1.6882   12.8847 H   0  0  0  0  0  0  0  0  0  0  0  0
   -5.1089   -0.4285   11.9963 H   0  0  0  0  0  0  0  0  0  0  0  0
   -4.3666   -1.2689   11.4810 H   0  0  0  0  0  0  0  0  0  0  0  0
   -5.7587   -1.1786    8.6263 H   0  0  0  0  0  0  0  0  0  0  0  0
   -2.3796    0.7865   11.9793 H   0  0  0  0  0  0  0  0  0  0  0  0
   -1.3593    1.1266   11.4802 H   0  0  0  0  0  0  0  0  0  0  0  0
  1  2  2  0
  2  3  1  0
  3  4  1  0
  4  5  1  0
  5  6  1  0
  6  7  1  0
  7  8  1  0
  2  9  1  0
  9 10  1  0
 10 11  1  0
 11 12  1  0
 12 13  1  0
 13 14  2  0
 14 15  1  0
 15 16  2  0
 16 17  1  0
  8  4  1  0
 17  9  1  0
 16 12  1  0
  3 18  1  0
  4 19  1  0
  5 20  1  0
  5 21  1  0
  6 22  1  0
  6 23  1  0
  7 24  1  0
  8 25  1  0
  8 26  1  0
 10 27  1  0
 10 28  1  0
 11 29  1  0
 11 30  1  0
 13 31  1  0
 17 32  1  0
 17 33  1  0
M  END
>  <Energy>  (1109) 
450.57306725050103

>  <compound_id>  (1109) 
14890

>  <target_id>  (1109) 
1

>  <reference_id>  (1109) 
65

>  <inspiration_ids>  (1109) 
[65, 70]

>  <energy_score>  (1109) 
483.1896341859237

>  <distance_score>  (1109) 
9.366882287358443

>  <path>  (1109) 
/opt/xchem-fragalysis-2/maxwin/BulkDock/SCRATCH/511022/C14890-P65/C14890-P65.minimised.mol

>  <scratch_subdir>  (1109) 
/opt/xchem-fragalysis-2/maxwin/BulkDock/SCRATCH/511022/C14890-P65

>  <fragmenstein_runtime>  (1109) 
7.239185810089111

>  <fragmenstein_outcome>  (1109) 
too moved

>  <fragmenstein_mode>  (1109) 
expansion

>  <fragmenstein_error>  (1109) 


$$$$
C14890-P70
     RDKit          3D

 33 35  0  0  0  0  0  0  0  0999 V2000
   -5.2893    7.5163   15.2531 O   0  0  0  0  0  0  0  0  0  0  0  0
   -6.4617    7.4821   15.3278 C   0  0  0  0  0  0  0  0  0  0  0  0
   -7.3389    7.4286   16.5105 N   0  0  0  0  0  0  0  0  0  0  0  0
   -7.0164    7.3036   17.9495 C   0  0  0  0  0  0  0  0  0  0  0  0
   -5.5645    7.5537   18.3996 C   0  0  0  0  0  0  0  0  0  0  0  0
   -5.3377    6.6686   19.6351 C   0  0  0  0  0  0  0  0  0  0  0  0
   -6.6272    6.0437   19.9154 N   0  0  0  0  0  0  0  0  0  0  0  0
   -7.2751    5.9350   18.5995 C   0  0  0  0  0  0  0  0  0  0  0  0
   -7.4995    7.4705   14.2273 N   0  0  0  0  0  0  0  0  0  0  0  0
   -7.3354    7.6151   12.7127 C   0  0  0  0  0  0  0  0  0  0  0  0
   -8.5294    7.6476   11.7385 C   0  0  0  0  0  0  0  0  0  0  0  0
   -9.1684    6.3751   11.8058 N   0  0  0  0  0  0  0  0  0  0  0  0
   -9.9558    5.6668   10.9746 C   0  0  0  0  0  0  0  0  0  0  0  0
  -10.2720    4.5338   11.5684 N   0  0  0  0  0  0  0  0  0  0  0  0
   -9.6315    4.5112   12.7978 N   0  0  0  0  0  0  0  0  0  0  0  0
   -8.9269    5.6195   12.8945 C   0  0  0  0  0  0  0  0  0  0  0  0
   -7.8356    6.0193   13.8380 C   0  0  0  0  0  0  0  0  0  0  0  0
   -8.3009    7.4933   16.2124 H   0  0  0  0  0  0  0  0  0  0  0  0
   -7.6602    8.0448   18.4422 H   0  0  0  0  0  0  0  0  0  0  0  0
   -5.4155    8.6141   18.6305 H   0  0  0  0  0  0  0  0  0  0  0  0
   -4.8381    7.2775   17.6315 H   0  0  0  0  0  0  0  0  0  0  0  0
   -4.9932    7.2542   20.4924 H   0  0  0  0  0  0  0  0  0  0  0  0
   -4.5809    5.9063   19.4167 H   0  0  0  0  0  0  0  0  0  0  0  0
   -6.4907    5.0996   20.3049 H   0  0  0  0  0  0  0  0  0  0  0  0
   -6.8162    5.1270   18.0258 H   0  0  0  0  0  0  0  0  0  0  0  0
   -8.3458    5.7376   18.7015 H   0  0  0  0  0  0  0  0  0  0  0  0
   -6.9134    8.6308   12.6511 H   0  0  0  0  0  0  0  0  0  0  0  0
   -6.4860    7.0193   12.3308 H   0  0  0  0  0  0  0  0  0  0  0  0
   -8.1965    7.8268   10.7120 H   0  0  0  0  0  0  0  0  0  0  0  0
   -9.2590    8.4095   12.0306 H   0  0  0  0  0  0  0  0  0  0  0  0
  -10.2814    5.9907    9.9967 H   0  0  0  0  0  0  0  0  0  0  0  0
   -8.2273    5.6221   14.7812 H   0  0  0  0  0  0  0  0  0  0  0  0
   -6.9075    5.4821   13.6115 H   0  0  0  0  0  0  0  0  0  0  0  0
  1  2  2  0
  2  3  1  0
  3  4  1  0
  4  5  1  0
  5  6  1  0
  6  7  1  0
  7  8  1  0
  2  9  1  0
  9 10  1  0
 10 11  1  0
 11 12  1  0
 12 13  1  0
 13 14  2  0
 14 15  1  0
 15 16  2  0
 16 17  1  0
  8  4  1  0
 17  9  1  0
 16 12  1  0
  3 18  1  0
  4 19  1  0
  5 20  1  0
  5 21  1  0
  6 22  1  0
  6 23  1  0
  7 24  1  0
  8 25  1  0
  8 26  1  0
 10 27  1  0
 10 28  1  0
 11 29  1  0
 11 30  1  0
 13 31  1  0
 17 32  1  0
 17 33  1  0
M  END
>  <Energy>  (1110) 
29.214080255296878

>  <compound_id>  (1110) 
14890

>  <target_id>  (1110) 
1

>  <reference_id>  (1110) 
70

>  <inspiration_ids>  (1110) 
[65, 70]

>  <energy_score>  (1110) 
61.8306471907232

>  <distance_score>  (1110) 
10.885473265340895

>  <path>  (1110) 
/opt/xchem-fragalysis-2/maxwin/BulkDock/SCRATCH/511022/C14890-P70/C14890-P70.minimised.mol

>  <scratch_subdir>  (1110) 
/opt/xchem-fragalysis-2/maxwin/BulkDock/SCRATCH/511022/C14890-P70

>  <fragmenstein_runtime>  (1110) 
12.01060152053833

>  <fragmenstein_outcome>  (1110) 
too moved

>  <fragmenstein_mode>  (1110) 
expansion

>  <fragmenstein_error>  (1110) 


$$$$
C14894-P65
     RDKit          3D

 39 41  0  0  0  0  0  0  0  0999 V2000
   -0.6216    2.5732   11.9582 O   0  0  0  0  0  0  0  0  0  0  0  0
   -1.3215    1.9140   12.6472 C   0  0  0  0  0  0  0  0  0  0  0  0
   -1.9348    0.2472   11.6226 C   0  0  0  0  0  0  0  0  0  0  0  0
   -2.9680   -0.2423    9.7214 C   0  0  0  0  0  0  0  0  0  0  0  0
   -3.4242    0.7454    8.4626 C   0  0  0  0  0  0  0  0  0  0  0  0
   -4.2499   -0.1235    7.5342 C   0  0  0  0  0  0  0  0  0  0  0  0
   -3.4085   -1.2878    7.3998 N   0  0  0  0  0  0  0  0  0  0  0  0
   -2.7678   -1.4573    8.7196 C   0  0  0  0  0  0  0  0  0  0  0  0
   -1.6254    2.1938   14.1315 N   0  0  0  0  0  0  0  0  0  0  0  0
   -1.0871    3.2228   15.0694 C   0  0  0  0  0  0  0  0  0  0  0  0
   -0.9818    3.3587   16.5907 C   0  0  0  0  0  0  0  0  0  0  0  0
   -1.7018    4.2556   17.2690 N   0  0  0  0  0  0  0  0  0  0  0  0
   -1.0585    4.6405   18.4172 N   0  0  0  0  0  0  0  0  0  0  0  0
    0.0629    3.9670   18.4772 C   0  0  0  0  0  0  0  0  0  0  0  0
    0.1205    3.1048   17.3973 N   0  0  0  0  0  0  0  0  0  0  0  0
    1.1764    2.1257   17.2898 C   0  0  0  0  0  0  0  0  0  0  0  0
    2.3959    2.5012   18.1634 C   0  0  0  0  0  0  0  0  0  0  0  0
    2.0500    2.9301   19.5173 N   0  0  0  0  0  0  0  0  0  0  0  0
    1.1172    4.0564   19.5274 C   0  0  0  0  0  0  0  0  0  0  0  0
   -2.6084   -0.0801   12.4148 H   0  0  0  0  0  0  0  0  0  0  0  0
   -1.0811   -0.4683   11.7437 H   0  0  0  0  0  0  0  0  0  0  0  0
   -4.0010   -0.4876   10.0694 H   0  0  0  0  0  0  0  0  0  0  0  0
   -4.0056    1.6150    8.6916 H   0  0  0  0  0  0  0  0  0  0  0  0
   -2.6047    1.1134    7.8607 H   0  0  0  0  0  0  0  0  0  0  0  0
   -5.2181   -0.3997    7.9598 H   0  0  0  0  0  0  0  0  0  0  0  0
   -4.4275    0.3589    6.5682 H   0  0  0  0  0  0  0  0  0  0  0  0
   -2.6645   -1.1003    6.7296 H   0  0  0  0  0  0  0  0  0  0  0  0
   -1.7453   -1.6239    8.5582 H   0  0  0  0  0  0  0  0  0  0  0  0
   -3.1507   -2.3936    9.0484 H   0  0  0  0  0  0  0  0  0  0  0  0
   -2.3108    1.5344   14.4454 H   0  0  0  0  0  0  0  0  0  0  0  0
   -0.0517    3.3355   14.7150 H   0  0  0  0  0  0  0  0  0  0  0  0
   -1.5564    4.1503   14.7113 H   0  0  0  0  0  0  0  0  0  0  0  0
    0.7510    1.1656   17.5993 H   0  0  0  0  0  0  0  0  0  0  0  0
    1.4715    2.0557   16.2382 H   0  0  0  0  0  0  0  0  0  0  0  0
    2.9599    3.3031   17.6694 H   0  0  0  0  0  0  0  0  0  0  0  0
    3.0656    1.6360   18.2203 H   0  0  0  0  0  0  0  0  0  0  0  0
    2.8792    3.1546   20.0609 H   0  0  0  0  0  0  0  0  0  0  0  0
    1.6749    4.9882   19.3755 H   0  0  0  0  0  0  0  0  0  0  0  0
    0.6463    4.1159   20.5143 H   0  0  0  0  0  0  0  0  0  0  0  0
  1  2  2  0
  2  3  1  0
  3  4  1  0
  4  5  1  0
  5  6  1  0
  6  7  1  0
  7  8  1  0
  2  9  1  0
  9 10  1  0
 10 11  1  0
 11 12  2  0
 12 13  1  0
 13 14  2  0
 14 15  1  0
 15 16  1  0
 16 17  1  0
 17 18  1  0
 18 19  1  0
  8  4  1  0
 15 11  1  0
 19 14  1  0
  3 20  1  0
  3 21  1  0
  4 22  1  0
  5 23  1  0
  5 24  1  0
  6 25  1  0
  6 26  1  0
  7 27  1  0
  8 28  1  0
  8 29  1  0
  9 30  1  0
 10 31  1  0
 10 32  1  0
 16 33  1  0
 16 34  1  0
 17 35  1  0
 17 36  1  0
 18 37  1  0
 19 38  1  0
 19 39  1  0
M  END
>  <Energy>  (1111) 
294.33165369530565

>  <compound_id>  (1111) 
14894

>  <target_id>  (1111) 
1

>  <reference_id>  (1111) 
65

>  <inspiration_ids>  (1111) 
[65, 70]

>  <energy_score>  (1111) 
267.96839803919823

>  <distance_score>  (1111) 
8.310277505822286

>  <path>  (1111) 
/opt/xchem-fragalysis-2/maxwin/BulkDock/SCRATCH/511022/C14894-P65/C14894-P65.minimised.mol

>  <scratch_subdir>  (1111) 
/opt/xchem-fragalysis-2/maxwin/BulkDock/SCRATCH/511022/C14894-P65

>  <fragmenstein_runtime>  (1111) 
4.937838077545166

>  <fragmenstein_outcome>  (1111) 
too moved

>  <fragmenstein_mode>  (1111) 
expansion

>  <fragmenstein_error>  (1111) 


$$$$
C14894-P70
     RDKit          3D

 39 41  0  0  0  0  0  0  0  0999 V2000
    1.1539    5.3997   18.9307 O   0  0  0  0  0  0  0  0  0  0  0  0
    1.0752    4.2571   19.2847 C   0  0  0  0  0  0  0  0  0  0  0  0
    1.2721    3.1350   18.2220 C   0  0  0  0  0  0  0  0  0  0  0  0
    1.1394    3.5625   16.7419 C   0  0  0  0  0  0  0  0  0  0  0  0
   -0.2920    3.8530   16.3147 C   0  0  0  0  0  0  0  0  0  0  0  0
   -0.3694    3.4928   14.8347 C   0  0  0  0  0  0  0  0  0  0  0  0
    0.9392    2.9271   14.4834 N   0  0  0  0  0  0  0  0  0  0  0  0
    1.5166    2.4640   15.7526 C   0  0  0  0  0  0  0  0  0  0  0  0
    0.8977    3.6870   20.6063 N   0  0  0  0  0  0  0  0  0  0  0  0
    0.8564    4.3171   21.9209 C   0  0  0  0  0  0  0  0  0  0  0  0
    0.0223    3.6068   22.9596 C   0  0  0  0  0  0  0  0  0  0  0  0
   -1.0616    2.8706   22.7749 N   0  0  0  0  0  0  0  0  0  0  0  0
   -1.5715    2.4844   23.9906 N   0  0  0  0  0  0  0  0  0  0  0  0
   -0.7939    2.9802   24.9224 C   0  0  0  0  0  0  0  0  0  0  0  0
    0.2425    3.6475   24.3202 N   0  0  0  0  0  0  0  0  0  0  0  0
    1.3815    4.1359   25.0683 C   0  0  0  0  0  0  0  0  0  0  0  0
    1.1242    4.1286   26.5884 C   0  0  0  0  0  0  0  0  0  0  0  0
    0.4197    2.9184   27.0398 N   0  0  0  0  0  0  0  0  0  0  0  0
   -0.9057    2.8456   26.4011 C   0  0  0  0  0  0  0  0  0  0  0  0
    2.2787    2.7304   18.3857 H   0  0  0  0  0  0  0  0  0  0  0  0
    0.5611    2.3294   18.3918 H   0  0  0  0  0  0  0  0  0  0  0  0
    1.7605    4.4492   16.5559 H   0  0  0  0  0  0  0  0  0  0  0  0
   -0.5501    4.9010   16.4979 H   0  0  0  0  0  0  0  0  0  0  0  0
   -0.9791    3.2177   16.8833 H   0  0  0  0  0  0  0  0  0  0  0  0
   -1.1642    2.7636   14.6549 H   0  0  0  0  0  0  0  0  0  0  0  0
   -0.5839    4.3718   14.2181 H   0  0  0  0  0  0  0  0  0  0  0  0
    1.5242    3.6904   14.1380 H   0  0  0  0  0  0  0  0  0  0  0  0
    1.0876    1.4964   16.0362 H   0  0  0  0  0  0  0  0  0  0  0  0
    2.6012    2.3425   15.6704 H   0  0  0  0  0  0  0  0  0  0  0  0
    0.9591    2.6675   20.5412 H   0  0  0  0  0  0  0  0  0  0  0  0
    1.8972    4.3819   22.2549 H   0  0  0  0  0  0  0  0  0  0  0  0
    0.4872    5.3394   21.7891 H   0  0  0  0  0  0  0  0  0  0  0  0
    1.6065    5.1494   24.7220 H   0  0  0  0  0  0  0  0  0  0  0  0
    2.2203    3.4752   24.8209 H   0  0  0  0  0  0  0  0  0  0  0  0
    0.5408    5.0154   26.8687 H   0  0  0  0  0  0  0  0  0  0  0  0
    2.0835    4.2056   27.1119 H   0  0  0  0  0  0  0  0  0  0  0  0
    0.2815    2.9667   28.0496 H   0  0  0  0  0  0  0  0  0  0  0  0
   -1.5608    3.6324   26.7933 H   0  0  0  0  0  0  0  0  0  0  0  0
   -1.3630    1.8818   26.6485 H   0  0  0  0  0  0  0  0  0  0  0  0
  1  2  2  0
  2  3  1  0
  3  4  1  0
  4  5  1  0
  5  6  1  0
  6  7  1  0
  7  8  1  0
  2  9  1  0
  9 10  1  0
 10 11  1  0
 11 12  2  0
 12 13  1  0
 13 14  2  0
 14 15  1  0
 15 16  1  0
 16 17  1  0
 17 18  1  0
 18 19  1  0
  8  4  1  0
 15 11  1  0
 19 14  1  0
  3 20  1  0
  3 21  1  0
  4 22  1  0
  5 23  1  0
  5 24  1  0
  6 25  1  0
  6 26  1  0
  7 27  1  0
  8 28  1  0
  8 29  1  0
  9 30  1  0
 10 31  1  0
 10 32  1  0
 16 33  1  0
 16 34  1  0
 17 35  1  0
 17 36  1  0
 18 37  1  0
 19 38  1  0
 19 39  1  0
M  END
>  <Energy>  (1112) 
3.0629295533472023

>  <compound_id>  (1112) 
14894

>  <target_id>  (1112) 
1

>  <reference_id>  (1112) 
70

>  <inspiration_ids>  (1112) 
[65, 70]

>  <energy_score>  (1112) 
-23.30032610275731

>  <distance_score>  (1112) 
7.880042029134396

>  <path>  (1112) 
/opt/xchem-fragalysis-2/maxwin/BulkDock/SCRATCH/511022/C14894-P70/C14894-P70.minimised.mol

>  <scratch_subdir>  (1112) 
/opt/xchem-fragalysis-2/maxwin/BulkDock/SCRATCH/511022/C14894-P70

>  <fragmenstein_runtime>  (1112) 
8.799915790557861

>  <fragmenstein_outcome>  (1112) 
too moved

>  <fragmenstein_mode>  (1112) 
expansion

>  <fragmenstein_error>  (1112) 


$$$$
C67644-P65
     RDKit          3D

 42 44  0  0  0  0  0  0  0  0999 V2000
   -0.2829   -1.4592   12.1370 O   0  0  0  0  0  0  0  0  0  0  0  0
   -0.8243   -0.3841   12.2223 C   0  0  0  0  0  0  0  0  0  0  0  0
   -0.3176    1.0818   13.4118 C   0  0  0  0  0  0  0  0  0  0  0  0
    0.3187    1.7502   14.7785 C   0  0  0  0  0  0  0  0  0  0  0  0
   -0.7231    2.5416   15.5782 C   0  0  0  0  0  0  0  0  0  0  0  0
   -0.1972    2.7322   16.9966 C   0  0  0  0  0  0  0  0  0  0  0  0
    1.2961    3.0237   17.0482 C   0  0  0  0  0  0  0  0  0  0  0  0
    1.7948    3.5362   15.7023 C   0  0  0  0  0  0  0  0  0  0  0  0
    1.4340    2.7080   14.5317 N   0  0  0  0  0  0  0  0  0  0  0  0
   -1.9656    0.2326   11.3844 N   0  0  0  0  0  0  0  0  0  0  0  0
   -2.9339   -0.4502    9.6811 C   0  0  0  0  0  0  0  0  0  0  0  0
   -3.4103    0.3545    8.4126 C   0  0  0  0  0  0  0  0  0  0  0  0
   -3.5403    1.6459    8.1762 N   0  0  0  0  0  0  0  0  0  0  0  0
   -4.3870    1.8400    7.1096 N   0  0  0  0  0  0  0  0  0  0  0  0
   -4.6998    0.6572    6.6435 C   0  0  0  0  0  0  0  0  0  0  0  0
   -4.0137   -0.2844    7.3565 N   0  0  0  0  0  0  0  0  0  0  0  0
   -3.9740   -1.6655    6.9493 C   0  0  0  0  0  0  0  0  0  0  0  0
   -5.2114   -2.0290    6.1254 C   0  0  0  0  0  0  0  0  0  0  0  0
   -5.4112   -1.0652    5.0329 N   0  0  0  0  0  0  0  0  0  0  0  0
   -5.6502    0.2914    5.5630 C   0  0  0  0  0  0  0  0  0  0  0  0
    0.7469    0.9276   13.1140 H   0  0  0  0  0  0  0  0  0  0  0  0
   -0.7843    1.9660   12.9456 H   0  0  0  0  0  0  0  0  0  0  0  0
    0.8021    0.9864   15.4045 H   0  0  0  0  0  0  0  0  0  0  0  0
   -1.6962    2.0557   15.5828 H   0  0  0  0  0  0  0  0  0  0  0  0
   -0.9023    3.5195   15.1096 H   0  0  0  0  0  0  0  0  0  0  0  0
   -0.7659    3.5220   17.4965 H   0  0  0  0  0  0  0  0  0  0  0  0
   -0.3383    1.7841   17.5172 H   0  0  0  0  0  0  0  0  0  0  0  0
    1.8411    2.1076   17.3103 H   0  0  0  0  0  0  0  0  0  0  0  0
    1.5127    3.7482   17.8411 H   0  0  0  0  0  0  0  0  0  0  0  0
    2.8846    3.6487   15.7327 H   0  0  0  0  0  0  0  0  0  0  0  0
    1.3919    4.5421   15.5318 H   0  0  0  0  0  0  0  0  0  0  0  0
    2.2548    2.1823   14.2294 H   0  0  0  0  0  0  0  0  0  0  0  0
   -2.2332    1.1297   11.7923 H   0  0  0  0  0  0  0  0  0  0  0  0
   -2.3531   -1.2890    9.2334 H   0  0  0  0  0  0  0  0  0  0  0  0
   -3.9680   -0.7410    9.9780 H   0  0  0  0  0  0  0  0  0  0  0  0
   -3.0710   -1.7542    6.3431 H   0  0  0  0  0  0  0  0  0  0  0  0
   -3.8724   -2.3062    7.8197 H   0  0  0  0  0  0  0  0  0  0  0  0
   -5.0785   -3.0286    5.6990 H   0  0  0  0  0  0  0  0  0  0  0  0
   -6.1037   -2.0635    6.7632 H   0  0  0  0  0  0  0  0  0  0  0  0
   -6.2233   -1.3381    4.4796 H   0  0  0  0  0  0  0  0  0  0  0  0
   -6.6731    0.3558    5.9527 H   0  0  0  0  0  0  0  0  0  0  0  0
   -5.5671    1.0079    4.7393 H   0  0  0  0  0  0  0  0  0  0  0  0
  1  2  2  0
  2  3  1  0
  3  4  1  0
  4  5  1  0
  5  6  1  0
  6  7  1  0
  7  8  1  0
  8  9  1  0
  2 10  1  0
 10 11  1  0
 11 12  1  0
 12 13  2  0
 13 14  1  0
 14 15  2  0
 15 16  1  0
 16 17  1  0
 17 18  1  0
 18 19  1  0
 19 20  1  0
  9  4  1  0
 16 12  1  0
 20 15  1  0
  3 21  1  0
  3 22  1  0
  4 23  1  0
  5 24  1  0
  5 25  1  0
  6 26  1  0
  6 27  1  0
  7 28  1  0
  7 29  1  0
  8 30  1  0
  8 31  1  0
  9 32  1  0
 10 33  1  0
 11 34  1  0
 11 35  1  0
 17 36  1  0
 17 37  1  0
 18 38  1  0
 18 39  1  0
 19 40  1  0
 20 41  1  0
 20 42  1  0
M  END
>  <Energy>  (1113) 
228.82103088620204

>  <compound_id>  (1113) 
67644

>  <target_id>  (1113) 
1

>  <reference_id>  (1113) 
65

>  <inspiration_ids>  (1113) 
[65, 70]

>  <energy_score>  (1113) 
195.724008998054

>  <distance_score>  (1113) 
8.958714367453764

>  <path>  (1113) 
/opt/xchem-fragalysis-2/maxwin/BulkDock/SCRATCH/511022/C67644-P65/C67644-P65.minimised.mol

>  <scratch_subdir>  (1113) 
/opt/xchem-fragalysis-2/maxwin/BulkDock/SCRATCH/511022/C67644-P65

>  <fragmenstein_runtime>  (1113) 
9.652425050735474

>  <fragmenstein_outcome>  (1113) 
too moved

>  <fragmenstein_mode>  (1113) 
expansion

>  <fragmenstein_error>  (1113) 


$$$$
C67644-P70
     RDKit          3D

 42 44  0  0  0  0  0  0  0  0999 V2000
   -9.5149   -1.4673   19.9882 O   0  0  0  0  0  0  0  0  0  0  0  0
  -10.1571   -0.5556   19.5495 C   0  0  0  0  0  0  0  0  0  0  0  0
  -10.1284    0.7858   20.3218 C   0  0  0  0  0  0  0  0  0  0  0  0
   -9.2440    1.8427   19.6265 C   0  0  0  0  0  0  0  0  0  0  0  0
   -9.7301    3.2702   19.9132 C   0  0  0  0  0  0  0  0  0  0  0  0
   -8.7739    4.4373   19.5384 C   0  0  0  0  0  0  0  0  0  0  0  0
   -7.3092    4.1148   19.1451 C   0  0  0  0  0  0  0  0  0  0  0  0
   -6.9149    2.6179   19.1807 C   0  0  0  0  0  0  0  0  0  0  0  0
   -7.8300    1.7740   19.9625 N   0  0  0  0  0  0  0  0  0  0  0  0
  -10.9665   -0.4620   18.3611 N   0  0  0  0  0  0  0  0  0  0  0  0
  -11.3331   -1.4634   17.3792 C   0  0  0  0  0  0  0  0  0  0  0  0
  -11.8059   -0.8298   16.1130 C   0  0  0  0  0  0  0  0  0  0  0  0
  -12.3784    0.3555   15.9940 N   0  0  0  0  0  0  0  0  0  0  0  0
  -12.6037    0.6100   14.6611 N   0  0  0  0  0  0  0  0  0  0  0  0
  -12.1862   -0.4311   13.9826 C   0  0  0  0  0  0  0  0  0  0  0  0
  -11.7195   -1.3797   14.8609 N   0  0  0  0  0  0  0  0  0  0  0  0
  -11.1294   -2.6363   14.4445 C   0  0  0  0  0  0  0  0  0  0  0  0
  -11.3322   -2.8666   12.9460 C   0  0  0  0  0  0  0  0  0  0  0  0
  -11.1454   -1.6303   12.1852 N   0  0  0  0  0  0  0  0  0  0  0  0
  -12.1524   -0.6303   12.5138 C   0  0  0  0  0  0  0  0  0  0  0  0
  -11.1654    1.1377   20.3980 H   0  0  0  0  0  0  0  0  0  0  0  0
   -9.7930    0.5984   21.3490 H   0  0  0  0  0  0  0  0  0  0  0  0
   -9.3761    1.5648   18.5860 H   0  0  0  0  0  0  0  0  0  0  0  0
  -10.0123    3.3313   20.9646 H   0  0  0  0  0  0  0  0  0  0  0  0
  -10.6759    3.4273   19.3764 H   0  0  0  0  0  0  0  0  0  0  0  0
   -8.7823    5.1978   20.3191 H   0  0  0  0  0  0  0  0  0  0  0  0
   -9.2383    4.9935   18.7143 H   0  0  0  0  0  0  0  0  0  0  0  0
   -6.6295    4.7482   19.7257 H   0  0  0  0  0  0  0  0  0  0  0  0
   -7.1015    4.5077   18.1470 H   0  0  0  0  0  0  0  0  0  0  0  0
   -5.8953    2.5186   19.5727 H   0  0  0  0  0  0  0  0  0  0  0  0
   -6.8103    2.1814   18.1927 H   0  0  0  0  0  0  0  0  0  0  0  0
   -7.7225    2.1547   20.9077 H   0  0  0  0  0  0  0  0  0  0  0  0
  -11.2997    0.4929   18.2610 H   0  0  0  0  0  0  0  0  0  0  0  0
  -10.4664   -2.1098   17.2175 H   0  0  0  0  0  0  0  0  0  0  0  0
  -12.1317   -2.0705   17.8165 H   0  0  0  0  0  0  0  0  0  0  0  0
  -11.6071   -3.4338   15.0233 H   0  0  0  0  0  0  0  0  0  0  0  0
  -10.0663   -2.6105   14.6989 H   0  0  0  0  0  0  0  0  0  0  0  0
  -10.6420   -3.6424   12.6023 H   0  0  0  0  0  0  0  0  0  0  0  0
  -12.3429   -3.2617   12.7914 H   0  0  0  0  0  0  0  0  0  0  0  0
  -11.0914   -1.7865   11.1732 H   0  0  0  0  0  0  0  0  0  0  0  0
  -13.1400   -0.9472   12.1600 H   0  0  0  0  0  0  0  0  0  0  0  0
  -11.9146    0.3132   12.0128 H   0  0  0  0  0  0  0  0  0  0  0  0
  1  2  2  0
  2  3  1  0
  3  4  1  0
  4  5  1  0
  5  6  1  0
  6  7  1  0
  7  8  1  0
  8  9  1  0
  2 10  1  0
 10 11  1  0
 11 12  1  0
 12 13  2  0
 13 14  1  0
 14 15  2  0
 15 16  1  0
 16 17  1  0
 17 18  1  0
 18 19  1  0
 19 20  1  0
  9  4  1  0
 16 12  1  0
 20 15  1  0
  3 21  1  0
  3 22  1  0
  4 23  1  0
  5 24  1  0
  5 25  1  0
  6 26  1  0
  6 27  1  0
  7 28  1  0
  7 29  1  0
  8 30  1  0
  8 31  1  0
  9 32  1  0
 10 33  1  0
 11 34  1  0
 11 35  1  0
 17 36  1  0
 17 37  1  0
 18 38  1  0
 18 39  1  0
 19 40  1  0
 20 41  1  0
 20 42  1  0
M  END
>  <Energy>  (1114) 
20.755216401510509

>  <compound_id>  (1114) 
67644

>  <target_id>  (1114) 
1

>  <reference_id>  (1114) 
70

>  <inspiration_ids>  (1114) 
[65, 70]

>  <energy_score>  (1114) 
-12.34180548664034

>  <distance_score>  (1114) 
10.203945220897358

>  <path>  (1114) 
/opt/xchem-fragalysis-2/maxwin/BulkDock/SCRATCH/511022/C67644-P70/C67644-P70.minimised.mol

>  <scratch_subdir>  (1114) 
/opt/xchem-fragalysis-2/maxwin/BulkDock/SCRATCH/511022/C67644-P70

>  <fragmenstein_runtime>  (1114) 
8.101815938949585

>  <fragmenstein_outcome>  (1114) 
too moved

>  <fragmenstein_mode>  (1114) 
expansion

>  <fragmenstein_error>  (1114) 


$$$$
C16111-P65
     RDKit          3D

 45 48  0  0  0  0  0  0  0  0999 V2000
   -5.6436   -0.3155   14.3237 O   0  0  0  0  0  0  0  0  0  0  0  0
   -5.8968    0.8002   14.7271 C   0  0  0  0  0  0  0  0  0  0  0  0
   -5.6344    1.5725   16.5835 N   0  0  0  0  0  0  0  0  0  0  0  0
   -5.0456    1.0604   17.7291 C   0  0  0  0  0  0  0  0  0  0  0  0
   -5.4740    2.4422   18.8996 C   0  0  0  0  0  0  0  0  0  0  0  0
   -6.5178    3.1843   18.5250 N   0  0  0  0  0  0  0  0  0  0  0  0
   -6.3454    4.4744   18.9388 N   0  0  0  0  0  0  0  0  0  0  0  0
   -5.2922    4.5238   19.7152 C   0  0  0  0  0  0  0  0  0  0  0  0
   -4.7988    3.2343   19.9178 N   0  0  0  0  0  0  0  0  0  0  0  0
   -4.2729    3.0153   21.2817 C   0  0  0  0  0  0  0  0  0  0  0  0
   -3.9483    4.2561   22.1714 C   0  0  0  0  0  0  0  0  0  0  0  0
   -4.7157    5.4650   21.9125 N   0  0  0  0  0  0  0  0  0  0  0  0
   -4.7820    5.7046   20.4697 C   0  0  0  0  0  0  0  0  0  0  0  0
   -6.5190    1.9750   13.1785 C   0  0  0  0  0  0  0  0  0  0  0  0
   -7.3808    1.6021   12.0548 N   0  0  0  0  0  0  0  0  0  0  0  0
   -8.2132    2.4430   11.5110 C   0  0  0  0  0  0  0  0  0  0  0  0
   -7.9174    3.6600   11.8339 O   0  0  0  0  0  0  0  0  0  0  0  0
   -6.7373    3.5762   12.5876 C   0  0  0  0  0  0  0  0  0  0  0  0
   -6.3840    5.1481   12.6148 C   0  0  0  0  0  0  0  0  0  0  0  0
   -5.9829    5.7244   11.2248 C   0  0  0  0  0  0  0  0  0  0  0  0
   -4.4904    6.0095   11.0673 C   0  0  0  0  0  0  0  0  0  0  0  0
   -3.7215    5.6690   12.2634 N   0  0  0  0  0  0  0  0  0  0  0  0
   -4.2447    6.3233   13.4464 C   0  0  0  0  0  0  0  0  0  0  0  0
   -5.7046    5.9659   13.6998 C   0  0  0  0  0  0  0  0  0  0  0  0
   -6.0189    2.5181   16.6662 H   0  0  0  0  0  0  0  0  0  0  0  0
   -4.0082    1.2826   17.5293 H   0  0  0  0  0  0  0  0  0  0  0  0
   -5.6743    0.4757   18.3916 H   0  0  0  0  0  0  0  0  0  0  0  0
   -4.7878    2.1820   21.7436 H   0  0  0  0  0  0  0  0  0  0  0  0
   -3.3508    2.5442   21.4056 H   0  0  0  0  0  0  0  0  0  0  0  0
   -2.8873    4.5084   22.0336 H   0  0  0  0  0  0  0  0  0  0  0  0
   -4.0504    3.9794   23.2269 H   0  0  0  0  0  0  0  0  0  0  0  0
   -4.2867    6.2643   22.3731 H   0  0  0  0  0  0  0  0  0  0  0  0
   -5.4429    6.5598   20.2901 H   0  0  0  0  0  0  0  0  0  0  0  0
   -3.7922    5.9797   20.0853 H   0  0  0  0  0  0  0  0  0  0  0  0
   -9.0207    2.2515   10.8212 H   0  0  0  0  0  0  0  0  0  0  0  0
   -7.4160    5.5380   12.7332 H   0  0  0  0  0  0  0  0  0  0  0  0
   -6.3562    5.1332   10.3832 H   0  0  0  0  0  0  0  0  0  0  0  0
   -6.4973    6.6920   11.1210 H   0  0  0  0  0  0  0  0  0  0  0  0
   -4.0991    5.4481   10.2118 H   0  0  0  0  0  0  0  0  0  0  0  0
   -4.3404    7.0681   10.8200 H   0  0  0  0  0  0  0  0  0  0  0  0
   -2.7449    5.9374   12.1137 H   0  0  0  0  0  0  0  0  0  0  0  0
   -3.6407    6.0270   14.3105 H   0  0  0  0  0  0  0  0  0  0  0  0
   -4.1294    7.4111   13.3597 H   0  0  0  0  0  0  0  0  0  0  0  0
   -6.2229    6.9396   13.7181 H   0  0  0  0  0  0  0  0  0  0  0  0
   -5.8887    5.6043   14.7023 H   0  0  0  0  0  0  0  0  0  0  0  0
  1  2  2  0
  2  3  1  0
  3  4  1  0
  4  5  1  0
  5  6  2  0
  6  7  1  0
  7  8  2  0
  8  9  1  0
  9 10  1  0
 10 11  1  0
 11 12  1  0
 12 13  1  0
  2 14  1  0
 14 15  1  0
 15 16  2  0
 16 17  1  0
 17 18  1  0
 18 19  1  0
 19 20  1  0
 20 21  1  0
 21 22  1  0
 22 23  1  0
 23 24  1  0
  9  5  1  0
 18 14  2  0
 24 19  1  0
 13  8  1  0
  3 25  1  0
  4 26  1  0
  4 27  1  0
 10 28  1  0
 10 29  1  0
 11 30  1  0
 11 31  1  0
 12 32  1  0
 13 33  1  0
 13 34  1  0
 16 35  1  0
 19 36  1  0
 20 37  1  0
 20 38  1  0
 21 39  1  0
 21 40  1  0
 22 41  1  0
 23 42  1  0
 23 43  1  0
 24 44  1  0
 24 45  1  0
M  END
>  <Energy>  (1115) 
485.51014949833859

>  <compound_id>  (1115) 
16111

>  <target_id>  (1115) 
1

>  <reference_id>  (1115) 
65

>  <inspiration_ids>  (1115) 
[65, 70]

>  <energy_score>  (1115) 
421.61893047262356

>  <distance_score>  (1115) 
8.437271860561705

>  <path>  (1115) 
/opt/xchem-fragalysis-2/maxwin/BulkDock/SCRATCH/511022/C16111-P65/C16111-P65.minimised.mol

>  <scratch_subdir>  (1115) 
/opt/xchem-fragalysis-2/maxwin/BulkDock/SCRATCH/511022/C16111-P65

>  <fragmenstein_runtime>  (1115) 
11.802720308303833

>  <fragmenstein_outcome>  (1115) 
too moved

>  <fragmenstein_mode>  (1115) 
expansion

>  <fragmenstein_error>  (1115) 


$$$$
C16111-P70
     RDKit          3D

 45 48  0  0  0  0  0  0  0  0999 V2000
    0.3976   -1.7266   16.0665 O   0  0  0  0  0  0  0  0  0  0  0  0
    0.5671   -1.5637   14.9098 C   0  0  0  0  0  0  0  0  0  0  0  0
    1.4577   -0.7031   14.2276 N   0  0  0  0  0  0  0  0  0  0  0  0
    2.4813    0.2080   14.7302 C   0  0  0  0  0  0  0  0  0  0  0  0
    2.0552    1.0136   15.9718 C   0  0  0  0  0  0  0  0  0  0  0  0
    1.3947    2.1649   15.9436 N   0  0  0  0  0  0  0  0  0  0  0  0
    1.4804    2.7721   17.1846 N   0  0  0  0  0  0  0  0  0  0  0  0
    2.1884    1.9854   17.9631 C   0  0  0  0  0  0  0  0  0  0  0  0
    2.4214    0.8067   17.2904 N   0  0  0  0  0  0  0  0  0  0  0  0
    3.0706   -0.3032   17.9530 C   0  0  0  0  0  0  0  0  0  0  0  0
    4.0390    0.1973   19.0433 C   0  0  0  0  0  0  0  0  0  0  0  0
    3.4012    1.1307   19.9613 N   0  0  0  0  0  0  0  0  0  0  0  0
    2.8274    2.3006   19.2829 C   0  0  0  0  0  0  0  0  0  0  0  0
   -0.6059   -2.4957   13.9686 C   0  0  0  0  0  0  0  0  0  0  0  0
   -0.4287   -3.9884   13.9017 N   0  0  0  0  0  0  0  0  0  0  0  0
   -1.2720   -4.4200   13.0691 C   0  0  0  0  0  0  0  0  0  0  0  0
   -2.0839   -3.4886   12.5817 O   0  0  0  0  0  0  0  0  0  0  0  0
   -1.5231   -1.9477   12.5494 C   0  0  0  0  0  0  0  0  0  0  0  0
   -1.2922   -0.7256   10.8536 C   0  0  0  0  0  0  0  0  0  0  0  0
   -2.3999   -1.2514    9.0894 C   0  0  0  0  0  0  0  0  0  0  0  0
   -3.4349   -0.9483    7.8297 C   0  0  0  0  0  0  0  0  0  0  0  0
   -4.5881   -0.2493    8.2374 N   0  0  0  0  0  0  0  0  0  0  0  0
   -4.0508    0.4991    9.3241 C   0  0  0  0  0  0  0  0  0  0  0  0
   -2.4430    0.4461    9.5642 C   0  0  0  0  0  0  0  0  0  0  0  0
    1.3934   -0.8809   13.2488 H   0  0  0  0  0  0  0  0  0  0  0  0
    3.3699   -0.3888   14.9542 H   0  0  0  0  0  0  0  0  0  0  0  0
    2.7260    0.9023   13.9201 H   0  0  0  0  0  0  0  0  0  0  0  0
    3.6119   -0.8905   17.2063 H   0  0  0  0  0  0  0  0  0  0  0  0
    2.2754   -0.9231   18.3816 H   0  0  0  0  0  0  0  0  0  0  0  0
    4.4217   -0.6630   19.6020 H   0  0  0  0  0  0  0  0  0  0  0  0
    4.9062    0.6808   18.5756 H   0  0  0  0  0  0  0  0  0  0  0  0
    4.0142    1.4137   20.7219 H   0  0  0  0  0  0  0  0  0  0  0  0
    2.1192    2.8111   19.9422 H   0  0  0  0  0  0  0  0  0  0  0  0
    3.6370    3.0162   19.0905 H   0  0  0  0  0  0  0  0  0  0  0  0
   -1.3343   -5.4452   12.7465 H   0  0  0  0  0  0  0  0  0  0  0  0
   -0.1450   -0.6143   10.5916 H   0  0  0  0  0  0  0  0  0  0  0  0
   -2.8864   -2.2227    9.1024 H   0  0  0  0  0  0  0  0  0  0  0  0
   -1.6472   -1.1363    8.3578 H   0  0  0  0  0  0  0  0  0  0  0  0
   -3.7158   -1.8972    7.3473 H   0  0  0  0  0  0  0  0  0  0  0  0
   -2.9469   -0.4081    7.0184 H   0  0  0  0  0  0  0  0  0  0  0  0
   -5.3375   -0.8621    8.5403 H   0  0  0  0  0  0  0  0  0  0  0  0
   -4.5651    0.2465   10.2217 H   0  0  0  0  0  0  0  0  0  0  0  0
   -4.2732    1.5087    9.0090 H   0  0  0  0  0  0  0  0  0  0  0  0
   -1.9924    0.5432    8.5685 H   0  0  0  0  0  0  0  0  0  0  0  0
   -2.3821    1.5049    9.4998 H   0  0  0  0  0  0  0  0  0  0  0  0
  1  2  2  0
  2  3  1  0
  3  4  1  0
  4  5  1  0
  5  6  2  0
  6  7  1  0
  7  8  2  0
  8  9  1  0
  9 10  1  0
 10 11  1  0
 11 12  1  0
 12 13  1  0
  2 14  1  0
 14 15  1  0
 15 16  2  0
 16 17  1  0
 17 18  1  0
 18 19  1  0
 19 20  1  0
 20 21  1  0
 21 22  1  0
 22 23  1  0
 23 24  1  0
  9  5  1  0
 18 14  2  0
 24 19  1  0
 13  8  1  0
  3 25  1  0
  4 26  1  0
  4 27  1  0
 10 28  1  0
 10 29  1  0
 11 30  1  0
 11 31  1  0
 12 32  1  0
 13 33  1  0
 13 34  1  0
 16 35  1  0
 19 36  1  0
 20 37  1  0
 20 38  1  0
 21 39  1  0
 21 40  1  0
 22 41  1  0
 23 42  1  0
 23 43  1  0
 24 44  1  0
 24 45  1  0
M  END
>  <Energy>  (1116) 
681.08264423842127

>  <compound_id>  (1116) 
16111

>  <target_id>  (1116) 
1

>  <reference_id>  (1116) 
70

>  <inspiration_ids>  (1116) 
[65, 70]

>  <energy_score>  (1116) 
617.1914252126942

>  <distance_score>  (1116) 
9.239603605631725

>  <path>  (1116) 
/opt/xchem-fragalysis-2/maxwin/BulkDock/SCRATCH/511022/C16111-P70/C16111-P70.minimised.mol

>  <scratch_subdir>  (1116) 
/opt/xchem-fragalysis-2/maxwin/BulkDock/SCRATCH/511022/C16111-P70

>  <fragmenstein_runtime>  (1116) 
12.542792320251465

>  <fragmenstein_outcome>  (1116) 
too moved

>  <fragmenstein_mode>  (1116) 
expansion

>  <fragmenstein_error>  (1116) 


$$$$
C67654-P65
     RDKit          3D

 46 50  0  0  0  0  0  0  0  0999 V2000
   -6.6914    0.2203   14.7134 O   0  0  0  0  0  0  0  0  0  0  0  0
   -5.5910    0.1449   14.5036 C   0  0  0  0  0  0  0  0  0  0  0  0
   -4.6190    0.5992   16.1961 N   0  0  0  0  0  0  0  0  0  0  0  0
   -5.2303    1.2250   17.8656 C   0  0  0  0  0  0  0  0  0  0  0  0
   -5.1060    2.6601   18.8925 C   0  0  0  0  0  0  0  0  0  0  0  0
   -6.1510    3.8152   18.9424 C   0  0  0  0  0  0  0  0  0  0  0  0
   -5.5024    4.8691   19.8572 C   0  0  0  0  0  0  0  0  0  0  0  0
   -4.0412    5.2357   19.8101 C   0  0  0  0  0  0  0  0  0  0  0  0
   -4.4946    4.1220   20.7015 C   0  0  0  0  0  0  0  0  0  0  0  0
   -4.6764    2.6543   20.3187 N   0  0  0  0  0  0  0  0  0  0  0  0
   -5.4254   -0.3878   12.4756 C   0  0  0  0  0  0  0  0  0  0  0  0
   -6.3788   -0.9971   12.2167 O   0  0  0  0  0  0  0  0  0  0  0  0
   -4.2299   -0.4194   10.8862 N   0  0  0  0  0  0  0  0  0  0  0  0
   -4.3335   -1.2645    9.3464 C   0  0  0  0  0  0  0  0  0  0  0  0
   -5.6393   -1.4236    8.4826 C   0  0  0  0  0  0  0  0  0  0  0  0
   -5.6891   -0.3127    7.6080 N   0  0  0  0  0  0  0  0  0  0  0  0
   -4.9365    0.7440    7.9374 C   0  0  0  0  0  0  0  0  0  0  0  0
   -4.9963    1.6170    6.9523 N   0  0  0  0  0  0  0  0  0  0  0  0
   -5.8188    1.0742    5.9704 N   0  0  0  0  0  0  0  0  0  0  0  0
   -6.2238   -0.1069    6.3909 C   0  0  0  0  0  0  0  0  0  0  0  0
   -7.1129   -1.0912    5.5920 C   0  0  0  0  0  0  0  0  0  0  0  0
   -8.4467   -0.6110    5.0851 C   0  0  0  0  0  0  0  0  0  0  0  0
   -8.3886   -1.6036    6.2095 C   0  0  0  0  0  0  0  0  0  0  0  0
   -4.0896    0.7875    9.3165 C   0  0  0  0  0  0  0  0  0  0  0  0
   -3.6043    0.6221   15.9888 H   0  0  0  0  0  0  0  0  0  0  0  0
   -5.7854    0.5040   18.4606 H   0  0  0  0  0  0  0  0  0  0  0  0
   -6.1034    1.7319   17.5101 H   0  0  0  0  0  0  0  0  0  0  0  0
   -4.2907    3.1907   18.5004 H   0  0  0  0  0  0  0  0  0  0  0  0
   -6.3724    4.2491   17.9648 H   0  0  0  0  0  0  0  0  0  0  0  0
   -7.0777    3.4933   19.4186 H   0  0  0  0  0  0  0  0  0  0  0  0
   -6.2080    5.5265   20.3413 H   0  0  0  0  0  0  0  0  0  0  0  0
   -3.7447    6.1631   20.2898 H   0  0  0  0  0  0  0  0  0  0  0  0
   -3.4613    5.0313   18.9213 H   0  0  0  0  0  0  0  0  0  0  0  0
   -4.4026    4.3152   21.7658 H   0  0  0  0  0  0  0  0  0  0  0  0
   -5.4877    2.3440   20.8674 H   0  0  0  0  0  0  0  0  0  0  0  0
   -3.5391   -1.0402    8.6049 H   0  0  0  0  0  0  0  0  0  0  0  0
   -3.6726   -2.0954    9.4471 H   0  0  0  0  0  0  0  0  0  0  0  0
   -6.5787   -1.4316    9.0338 H   0  0  0  0  0  0  0  0  0  0  0  0
   -5.5627   -2.2964    7.8235 H   0  0  0  0  0  0  0  0  0  0  0  0
   -6.5606   -1.7697    4.9512 H   0  0  0  0  0  0  0  0  0  0  0  0
   -8.7788   -0.9603    4.1151 H   0  0  0  0  0  0  0  0  0  0  0  0
   -8.7519    0.4035    5.3178 H   0  0  0  0  0  0  0  0  0  0  0  0
   -8.6897   -2.6239    5.9983 H   0  0  0  0  0  0  0  0  0  0  0  0
   -8.6835   -1.2575    7.1944 H   0  0  0  0  0  0  0  0  0  0  0  0
   -3.8289    1.8374    9.1782 H   0  0  0  0  0  0  0  0  0  0  0  0
   -3.1032    0.4856    8.9075 H   0  0  0  0  0  0  0  0  0  0  0  0
  1  2  2  0
  2  3  1  0
  3  4  1  0
  4  5  1  0
  5  6  1  0
  6  7  1  0
  7  8  1  0
  8  9  1  0
  9 10  1  0
  2 11  1  0
 11 12  2  0
 11 13  1  0
 13 14  1  0
 14 15  1  0
 15 16  1  0
 16 17  1  0
 17 18  2  0
 18 19  1  0
 19 20  2  0
 20 21  1  0
 21 22  1  0
 22 23  1  0
 17 24  1  0
 10  5  1  0
 24 13  1  0
  9  7  1  0
 20 16  1  0
 23 21  1  0
  3 25  1  0
  4 26  1  0
  4 27  1  0
  5 28  1  0
  6 29  1  0
  6 30  1  0
  7 31  1  0
  8 32  1  0
  8 33  1  0
  9 34  1  0
 10 35  1  0
 14 36  1  0
 14 37  1  0
 15 38  1  0
 15 39  1  0
 21 40  1  0
 22 41  1  0
 22 42  1  0
 23 43  1  0
 23 44  1  0
 24 45  1  0
 24 46  1  0
M  END
>  <Energy>  (1117) 
915.05337368535061

>  <compound_id>  (1117) 
67654

>  <target_id>  (1117) 
1

>  <reference_id>  (1117) 
65

>  <inspiration_ids>  (1117) 
[65, 70]

>  <energy_score>  (1117) 
753.6698355051633

>  <distance_score>  (1117) 
6.6757501723621555

>  <path>  (1117) 
/opt/xchem-fragalysis-2/maxwin/BulkDock/SCRATCH/511022/C67654-P65/C67654-P65.minimised.mol

>  <scratch_subdir>  (1117) 
/opt/xchem-fragalysis-2/maxwin/BulkDock/SCRATCH/511022/C67654-P65

>  <fragmenstein_runtime>  (1117) 
11.21286392211914

>  <fragmenstein_outcome>  (1117) 
too moved

>  <fragmenstein_mode>  (1117) 
expansion

>  <fragmenstein_error>  (1117) 


$$$$
C67654-P70
     RDKit          3D

 46 50  0  0  0  0  0  0  0  0999 V2000
   -4.7589    1.4543   17.0360 O   0  0  0  0  0  0  0  0  0  0  0  0
   -3.9660    0.6412   16.6649 C   0  0  0  0  0  0  0  0  0  0  0  0
   -3.3147   -0.5016   18.3201 N   0  0  0  0  0  0  0  0  0  0  0  0
   -3.6981   -0.3085   20.5328 C   0  0  0  0  0  0  0  0  0  0  0  0
   -2.6025    0.7508   22.1597 C   0  0  0  0  0  0  0  0  0  0  0  0
   -3.5877    2.4982   22.1842 C   0  0  0  0  0  0  0  0  0  0  0  0
   -3.1947    3.3972   23.3256 C   0  0  0  0  0  0  0  0  0  0  0  0
   -1.9504    4.2420   23.3379 C   0  0  0  0  0  0  0  0  0  0  0  0
   -1.9686    2.8587   23.8995 C   0  0  0  0  0  0  0  0  0  0  0  0
   -1.4591    1.7392   23.0833 N   0  0  0  0  0  0  0  0  0  0  0  0
   -3.4604    0.9870   14.3837 C   0  0  0  0  0  0  0  0  0  0  0  0
   -2.2981    1.7791   14.2811 O   0  0  0  0  0  0  0  0  0  0  0  0
   -4.4098    0.5745   12.3754 N   0  0  0  0  0  0  0  0  0  0  0  0
   -3.8447    0.9927   10.3696 C   0  0  0  0  0  0  0  0  0  0  0  0
   -3.7049   -0.0748    8.8664 C   0  0  0  0  0  0  0  0  0  0  0  0
   -5.0364   -0.2880    8.6343 N   0  0  0  0  0  0  0  0  0  0  0  0
   -5.4980    0.0477    9.8383 C   0  0  0  0  0  0  0  0  0  0  0  0
   -6.7843    0.3523    9.6959 N   0  0  0  0  0  0  0  0  0  0  0  0
   -7.0712    0.2686    8.3308 N   0  0  0  0  0  0  0  0  0  0  0  0
   -5.9703   -0.0967    7.7036 C   0  0  0  0  0  0  0  0  0  0  0  0
   -5.8283   -0.2769    6.1772 C   0  0  0  0  0  0  0  0  0  0  0  0
   -6.5285   -1.4440    5.5310 C   0  0  0  0  0  0  0  0  0  0  0  0
   -5.0309   -1.4299    5.6249 C   0  0  0  0  0  0  0  0  0  0  0  0
   -4.3108   -0.2981   11.5365 C   0  0  0  0  0  0  0  0  0  0  0  0
   -2.5887   -1.1211   18.0057 H   0  0  0  0  0  0  0  0  0  0  0  0
   -3.6925   -1.1208   21.2952 H   0  0  0  0  0  0  0  0  0  0  0  0
   -4.4959    0.2134   20.8426 H   0  0  0  0  0  0  0  0  0  0  0  0
   -1.8000    1.1782   21.6262 H   0  0  0  0  0  0  0  0  0  0  0  0
   -3.6254    3.1597   21.3258 H   0  0  0  0  0  0  0  0  0  0  0  0
   -4.6563    2.3146   22.0638 H   0  0  0  0  0  0  0  0  0  0  0  0
   -4.0124    3.7175   23.9555 H   0  0  0  0  0  0  0  0  0  0  0  0
   -1.9199    5.0724   24.0362 H   0  0  0  0  0  0  0  0  0  0  0  0
   -1.4430    4.4451   22.4045 H   0  0  0  0  0  0  0  0  0  0  0  0
   -1.9007    2.7576   24.9792 H   0  0  0  0  0  0  0  0  0  0  0  0
   -0.7615    2.1527   22.4392 H   0  0  0  0  0  0  0  0  0  0  0  0
   -2.7370    0.7959   10.0482 H   0  0  0  0  0  0  0  0  0  0  0  0
   -3.8422    1.9234    9.7531 H   0  0  0  0  0  0  0  0  0  0  0  0
   -3.1608   -1.0146    8.9238 H   0  0  0  0  0  0  0  0  0  0  0  0
   -3.2416    0.4923    8.0733 H   0  0  0  0  0  0  0  0  0  0  0  0
   -5.8189    0.6537    5.6198 H   0  0  0  0  0  0  0  0  0  0  0  0
   -6.9855   -1.2843    4.5613 H   0  0  0  0  0  0  0  0  0  0  0  0
   -7.0772   -2.1333    6.1650 H   0  0  0  0  0  0  0  0  0  0  0  0
   -4.4746   -1.2697    4.7086 H   0  0  0  0  0  0  0  0  0  0  0  0
   -4.5732   -2.1389    6.3047 H   0  0  0  0  0  0  0  0  0  0  0  0
   -5.2037   -0.6375   12.0745 H   0  0  0  0  0  0  0  0  0  0  0  0
   -5.3469    0.1647   11.6793 H   0  0  0  0  0  0  0  0  0  0  0  0
  1  2  2  0
  2  3  1  0
  3  4  1  0
  4  5  1  0
  5  6  1  0
  6  7  1  0
  7  8  1  0
  8  9  1  0
  9 10  1  0
  2 11  1  0
 11 12  2  0
 11 13  1  0
 13 14  1  0
 14 15  1  0
 15 16  1  0
 16 17  1  0
 17 18  2  0
 18 19  1  0
 19 20  2  0
 20 21  1  0
 21 22  1  0
 22 23  1  0
 17 24  1  0
 10  5  1  0
 24 13  1  0
  9  7  1  0
 20 16  1  0
 23 21  1  0
  3 25  1  0
  4 26  1  0
  4 27  1  0
  5 28  1  0
  6 29  1  0
  6 30  1  0
  7 31  1  0
  8 32  1  0
  8 33  1  0
  9 34  1  0
 10 35  1  0
 14 36  1  0
 14 37  1  0
 15 38  1  0
 15 39  1  0
 21 40  1  0
 22 41  1  0
 22 42  1  0
 23 43  1  0
 23 44  1  0
 24 45  1  0
 24 46  1  0
M  END
>  <Energy>  (1118) 
2260.5576009833353

>  <compound_id>  (1118) 
67654

>  <target_id>  (1118) 
1

>  <reference_id>  (1118) 
70

>  <inspiration_ids>  (1118) 
[65, 70]

>  <energy_score>  (1118) 
2099.174062803177

>  <distance_score>  (1118) 
4.606037492944262

>  <path>  (1118) 
/opt/xchem-fragalysis-2/maxwin/BulkDock/SCRATCH/511022/C67654-P70/C67654-P70.minimised.mol

>  <scratch_subdir>  (1118) 
/opt/xchem-fragalysis-2/maxwin/BulkDock/SCRATCH/511022/C67654-P70

>  <fragmenstein_runtime>  (1118) 
13.26554250717163

>  <fragmenstein_outcome>  (1118) 
too moved

>  <fragmenstein_mode>  (1118) 
expansion

>  <fragmenstein_error>  (1118) 


$$$$
C49673-P9
     RDKit          3D

 37 39  0  0  0  0  0  0  0  0999 V2000
    6.6121  -10.4076   14.3134 C   0  0  0  0  0  0  0  0  0  0  0  0
    7.8809  -10.1625   15.8753 C   0  0  0  0  0  0  0  0  0  0  0  0
    7.3096  -10.1454   17.7141 C   0  0  0  0  0  0  0  0  0  0  0  0
    5.4903   -9.6176   18.0751 C   0  0  0  0  0  0  0  0  0  0  0  0
    4.0844  -10.0849   16.6809 C   0  0  0  0  0  0  0  0  0  0  0  0
    4.7876  -10.4545   14.8252 C   0  0  0  0  0  0  0  0  0  0  0  0
    4.6287   -9.6958   13.1107 C   0  0  0  0  0  0  0  0  0  0  0  0
    5.3920   -8.4132   12.7415 C   0  0  0  0  0  0  0  0  0  0  0  0
    6.1634   -8.6509   11.4085 C   0  0  0  0  0  0  0  0  0  0  0  0
    5.2488   -8.9594   10.2269 C   0  0  0  0  0  0  0  0  0  0  0  0
    4.4081  -10.1602   10.5451 C   0  0  0  0  0  0  0  0  0  0  0  0
    3.7629   -9.8953   11.8078 N   0  0  0  0  0  0  0  0  0  0  0  0
    5.5610   -8.5561   19.1812 C   0  0  0  0  0  0  0  0  0  0  0  0
    6.4728   -9.0096   20.3549 C   0  0  0  0  0  0  0  0  0  0  0  0
    7.9121   -9.4752   20.0729 C   0  0  0  0  0  0  0  0  0  0  0  0
    8.1274  -10.4541   18.9191 C   0  0  0  0  0  0  0  0  0  0  0  0
    7.0637  -10.5135   13.3319 H   0  0  0  0  0  0  0  0  0  0  0  0
    8.9514  -10.2827   15.6702 H   0  0  0  0  0  0  0  0  0  0  0  0
    3.1291   -9.8247   17.0894 H   0  0  0  0  0  0  0  0  0  0  0  0
    5.3067  -10.4674   12.7456 H   0  0  0  0  0  0  0  0  0  0  0  0
    6.1006   -8.0929   13.5005 H   0  0  0  0  0  0  0  0  0  0  0  0
    4.7055   -7.5687   12.6166 H   0  0  0  0  0  0  0  0  0  0  0  0
    6.8718   -9.4789   11.5152 H   0  0  0  0  0  0  0  0  0  0  0  0
    6.7927   -7.7951   11.1682 H   0  0  0  0  0  0  0  0  0  0  0  0
    4.6186   -8.0868   10.0129 H   0  0  0  0  0  0  0  0  0  0  0  0
    5.8499   -9.1465    9.3300 H   0  0  0  0  0  0  0  0  0  0  0  0
    3.6538  -10.3152    9.7666 H   0  0  0  0  0  0  0  0  0  0  0  0
    5.0207  -11.0688   10.5766 H   0  0  0  0  0  0  0  0  0  0  0  0
    3.1248   -9.1041   11.7441 H   0  0  0  0  0  0  0  0  0  0  0  0
    5.9915   -7.6420   18.7562 H   0  0  0  0  0  0  0  0  0  0  0  0
    4.5646   -8.2509   19.5070 H   0  0  0  0  0  0  0  0  0  0  0  0
    6.0053   -9.8439   20.8861 H   0  0  0  0  0  0  0  0  0  0  0  0
    6.5162   -8.1886   21.0818 H   0  0  0  0  0  0  0  0  0  0  0  0
    8.2927   -9.9537   20.9862 H   0  0  0  0  0  0  0  0  0  0  0  0
    8.5557   -8.6069   19.9631 H   0  0  0  0  0  0  0  0  0  0  0  0
    7.8080  -11.4492   19.2536 H   0  0  0  0  0  0  0  0  0  0  0  0
    9.1835  -10.5594   18.6697 H   0  0  0  0  0  0  0  0  0  0  0  0
  1  2  2  0
  2  3  1  0
  3  4  2  0
  4  5  1  0
  5  6  2  0
  6  7  1  0
  7  8  1  0
  8  9  1  0
  9 10  1  0
 10 11  1  0
 11 12  1  0
  4 13  1  0
 13 14  1  0
 14 15  1  0
 15 16  1  0
  6  1  1  0
 12  7  1  0
 16  3  1  0
  1 17  1  0
  2 18  1  0
  5 19  1  0
  7 20  1  0
  8 21  1  0
  8 22  1  0
  9 23  1  0
  9 24  1  0
 10 25  1  0
 10 26  1  0
 11 27  1  0
 11 28  1  0
 12 29  1  0
 13 30  1  0
 13 31  1  0
 14 32  1  0
 14 33  1  0
 15 34  1  0
 15 35  1  0
 16 36  1  0
 16 37  1  0
M  END
>  <Energy>  (1119) 
760.6426713990179

>  <compound_id>  (1119) 
49673

>  <target_id>  (1119) 
1

>  <reference_id>  (1119) 
9

>  <inspiration_ids>  (1119) 
[9, 20]

>  <energy_score>  (1119) 
713.7202148708603

>  <distance_score>  (1119) 
18.384098603706644

>  <path>  (1119) 
/opt/xchem-fragalysis-2/maxwin/BulkDock/SCRATCH/511022/C49673-P9/C49673-P9.minimised.mol

>  <scratch_subdir>  (1119) 
/opt/xchem-fragalysis-2/maxwin/BulkDock/SCRATCH/511022/C49673-P9

>  <fragmenstein_runtime>  (1119) 
9.207429885864258

>  <fragmenstein_outcome>  (1119) 
too moved

>  <fragmenstein_mode>  (1119) 
expansion

>  <fragmenstein_error>  (1119) 


$$$$
C49673-P20
     RDKit          3D

 37 39  0  0  0  0  0  0  0  0999 V2000
    6.2146  -16.8547   13.4732 C   0  0  0  0  0  0  0  0  0  0  0  0
    7.1646  -15.8364   13.2126 C   0  0  0  0  0  0  0  0  0  0  0  0
    8.0667  -15.4034   14.1906 C   0  0  0  0  0  0  0  0  0  0  0  0
    7.9749  -15.9718   15.4704 C   0  0  0  0  0  0  0  0  0  0  0  0
    6.9884  -16.9973   15.7231 C   0  0  0  0  0  0  0  0  0  0  0  0
    6.0724  -17.4710   14.7341 C   0  0  0  0  0  0  0  0  0  0  0  0
    5.0384  -18.6687   14.9691 C   0  0  0  0  0  0  0  0  0  0  0  0
    4.1702  -18.5456   16.2541 C   0  0  0  0  0  0  0  0  0  0  0  0
    2.9825  -19.5341   16.3536 C   0  0  0  0  0  0  0  0  0  0  0  0
    3.0930  -20.6749   15.3573 C   0  0  0  0  0  0  0  0  0  0  0  0
    3.3368  -20.1644   13.9393 C   0  0  0  0  0  0  0  0  0  0  0  0
    4.1222  -18.9182   13.8283 N   0  0  0  0  0  0  0  0  0  0  0  0
    8.9636  -15.5557   16.5500 C   0  0  0  0  0  0  0  0  0  0  0  0
    9.7241  -14.2512   16.2592 C   0  0  0  0  0  0  0  0  0  0  0  0
   10.2393  -14.2555   14.8279 C   0  0  0  0  0  0  0  0  0  0  0  0
    9.0806  -14.3447   13.8378 C   0  0  0  0  0  0  0  0  0  0  0  0
    5.5812  -17.1800   12.6473 H   0  0  0  0  0  0  0  0  0  0  0  0
    7.2069  -15.4136   12.2095 H   0  0  0  0  0  0  0  0  0  0  0  0
    6.9640  -17.4529   16.7130 H   0  0  0  0  0  0  0  0  0  0  0  0
    5.6859  -19.5515   15.0643 H   0  0  0  0  0  0  0  0  0  0  0  0
    4.8229  -18.7068   17.1221 H   0  0  0  0  0  0  0  0  0  0  0  0
    3.7894  -17.5226   16.3636 H   0  0  0  0  0  0  0  0  0  0  0  0
    2.9266  -19.9322   17.3736 H   0  0  0  0  0  0  0  0  0  0  0  0
    2.0421  -18.9998   16.1935 H   0  0  0  0  0  0  0  0  0  0  0  0
    2.1914  -21.2968   15.3861 H   0  0  0  0  0  0  0  0  0  0  0  0
    3.9310  -21.3181   15.6550 H   0  0  0  0  0  0  0  0  0  0  0  0
    3.8450  -20.9468   13.3638 H   0  0  0  0  0  0  0  0  0  0  0  0
    2.3743  -20.0025   13.4392 H   0  0  0  0  0  0  0  0  0  0  0  0
    3.4307  -18.1521   13.8465 H   0  0  0  0  0  0  0  0  0  0  0  0
    9.6906  -16.3712   16.6557 H   0  0  0  0  0  0  0  0  0  0  0  0
    8.4426  -15.4610   17.5094 H   0  0  0  0  0  0  0  0  0  0  0  0
    9.0696  -13.3871   16.4122 H   0  0  0  0  0  0  0  0  0  0  0  0
   10.5574  -14.1494   16.9632 H   0  0  0  0  0  0  0  0  0  0  0  0
   10.8225  -13.3486   14.6322 H   0  0  0  0  0  0  0  0  0  0  0  0
   10.9155  -15.1082   14.6859 H   0  0  0  0  0  0  0  0  0  0  0  0
    8.5682  -13.3787   13.7835 H   0  0  0  0  0  0  0  0  0  0  0  0
    9.4931  -14.5475   12.8418 H   0  0  0  0  0  0  0  0  0  0  0  0
  1  2  2  0
  2  3  1  0
  3  4  2  0
  4  5  1  0
  5  6  2  0
  6  7  1  0
  7  8  1  0
  8  9  1  0
  9 10  1  0
 10 11  1  0
 11 12  1  0
  4 13  1  0
 13 14  1  0
 14 15  1  0
 15 16  1  0
  6  1  1  0
 12  7  1  0
 16  3  1  0
  1 17  1  0
  2 18  1  0
  5 19  1  0
  7 20  1  0
  8 21  1  0
  8 22  1  0
  9 23  1  0
  9 24  1  0
 10 25  1  0
 10 26  1  0
 11 27  1  0
 11 28  1  0
 12 29  1  0
 13 30  1  0
 13 31  1  0
 14 32  1  0
 14 33  1  0
 15 34  1  0
 15 35  1  0
 16 36  1  0
 16 37  1  0
M  END
>  <Energy>  (1120) 
33.797904949619991

>  <compound_id>  (1120) 
49673

>  <target_id>  (1120) 
1

>  <reference_id>  (1120) 
20

>  <inspiration_ids>  (1120) 
[9, 20]

>  <energy_score>  (1120) 
-13.124551578537819

>  <distance_score>  (1120) 
15.696338671529539

>  <path>  (1120) 
/opt/xchem-fragalysis-2/maxwin/BulkDock/SCRATCH/511022/C49673-P20/C49673-P20.minimised.mol

>  <scratch_subdir>  (1120) 
/opt/xchem-fragalysis-2/maxwin/BulkDock/SCRATCH/511022/C49673-P20

>  <fragmenstein_runtime>  (1120) 
8.873523473739624

>  <fragmenstein_outcome>  (1120) 
too moved

>  <fragmenstein_mode>  (1120) 
expansion

>  <fragmenstein_error>  (1120) 


$$$$
C49674-P9
     RDKit          3D

 32 34  0  0  0  0  0  0  0  0999 V2000
    2.1043  -16.3247   17.8908 C   0  0  0  0  0  0  0  0  0  0  0  0
    3.3280  -16.2981   17.2406 C   0  0  0  0  0  0  0  0  0  0  0  0
    3.5888  -17.2655   16.2778 C   0  0  0  0  0  0  0  0  0  0  0  0
    2.6175  -18.2641   15.9683 C   0  0  0  0  0  0  0  0  0  0  0  0
    1.3384  -18.3021   16.5761 C   0  0  0  0  0  0  0  0  0  0  0  0
    0.0752  -19.1627   16.2218 C   0  0  0  0  0  0  0  0  0  0  0  0
   -0.0232  -19.9135   14.8743 C   0  0  0  0  0  0  0  0  0  0  0  0
   -1.4364  -20.4992   14.6669 C   0  0  0  0  0  0  0  0  0  0  0  0
   -1.8630  -21.3832   15.8372 C   0  0  0  0  0  0  0  0  0  0  0  0
   -1.7523  -20.6710   17.1115 N   0  0  0  0  0  0  0  0  0  0  0  0
   -0.3860  -20.1503   17.3343 C   0  0  0  0  0  0  0  0  0  0  0  0
    1.1394  -17.3089   17.5735 C   0  0  0  0  0  0  0  0  0  0  0  0
    3.3251  -19.3810   14.7703 S   0  0  0  0  0  0  0  0  0  0  0  0
    4.6796  -18.2539   14.3269 C   0  0  0  0  0  0  0  0  0  0  0  0
    4.9101  -17.4091   15.5611 C   0  0  0  0  0  0  0  0  0  0  0  0
    1.8871  -15.5825   18.6542 H   0  0  0  0  0  0  0  0  0  0  0  0
    4.0535  -15.5465   17.5197 H   0  0  0  0  0  0  0  0  0  0  0  0
   -0.7165  -18.3979   16.1542 H   0  0  0  0  0  0  0  0  0  0  0  0
    0.7021  -20.7348   14.8493 H   0  0  0  0  0  0  0  0  0  0  0  0
    0.2133  -19.2428   14.0416 H   0  0  0  0  0  0  0  0  0  0  0  0
   -1.4561  -21.0814   13.7386 H   0  0  0  0  0  0  0  0  0  0  0  0
   -2.1525  -19.6767   14.5449 H   0  0  0  0  0  0  0  0  0  0  0  0
   -2.9000  -21.6982   15.6966 H   0  0  0  0  0  0  0  0  0  0  0  0
   -1.2494  -22.2917   15.8642 H   0  0  0  0  0  0  0  0  0  0  0  0
   -1.9906  -21.3165   17.8650 H   0  0  0  0  0  0  0  0  0  0  0  0
   -0.3854  -19.6422   18.3051 H   0  0  0  0  0  0  0  0  0  0  0  0
    0.3265  -20.9807   17.4189 H   0  0  0  0  0  0  0  0  0  0  0  0
    0.1812  -17.2578   18.0913 H   0  0  0  0  0  0  0  0  0  0  0  0
    4.3856  -17.6528   13.4645 H   0  0  0  0  0  0  0  0  0  0  0  0
    5.5768  -18.8144   14.0477 H   0  0  0  0  0  0  0  0  0  0  0  0
    5.6387  -17.9146   16.2001 H   0  0  0  0  0  0  0  0  0  0  0  0
    5.3387  -16.4588   15.2695 H   0  0  0  0  0  0  0  0  0  0  0  0
  1  2  2  0
  2  3  1  0
  3  4  2  0
  4  5  1  0
  5  6  1  0
  6  7  1  0
  7  8  1  0
  8  9  1  0
  9 10  1  0
 10 11  1  0
  5 12  2  0
  4 13  1  0
 13 14  1  0
 14 15  1  0
 12  1  1  0
 15  3  1  0
 11  6  1  0
  1 16  1  0
  2 17  1  0
  6 18  1  0
  7 19  1  0
  7 20  1  0
  8 21  1  0
  8 22  1  0
  9 23  1  0
  9 24  1  0
 10 25  1  0
 11 26  1  0
 11 27  1  0
 12 28  1  0
 14 29  1  0
 14 30  1  0
 15 31  1  0
 15 32  1  0
M  END
>  <Energy>  (1121) 
46.034961739137586

>  <compound_id>  (1121) 
49674

>  <target_id>  (1121) 
1

>  <reference_id>  (1121) 
9

>  <inspiration_ids>  (1121) 
[9, 20]

>  <energy_score>  (1121) 
-22.737978506502856

>  <distance_score>  (1121) 
15.273447017129252

>  <path>  (1121) 
/opt/xchem-fragalysis-2/maxwin/BulkDock/SCRATCH/511022/C49674-P9/C49674-P9.minimised.mol

>  <scratch_subdir>  (1121) 
/opt/xchem-fragalysis-2/maxwin/BulkDock/SCRATCH/511022/C49674-P9

>  <fragmenstein_runtime>  (1121) 
6.267213344573975

>  <fragmenstein_outcome>  (1121) 
too moved

>  <fragmenstein_mode>  (1121) 
expansion

>  <fragmenstein_error>  (1121) 


$$$$
C49674-P20
     RDKit          3D

 32 34  0  0  0  0  0  0  0  0999 V2000
    5.9006  -10.4315   18.4485 C   0  0  0  0  0  0  0  0  0  0  0  0
    7.5700  -10.6493   17.4776 C   0  0  0  0  0  0  0  0  0  0  0  0
    7.6490  -10.4065   15.6342 C   0  0  0  0  0  0  0  0  0  0  0  0
    5.7594  -10.6196   14.7348 C   0  0  0  0  0  0  0  0  0  0  0  0
    4.1048  -10.9499   15.9356 C   0  0  0  0  0  0  0  0  0  0  0  0
    3.4883  -12.2614   17.4971 C   0  0  0  0  0  0  0  0  0  0  0  0
    4.1285  -13.4705   18.7427 C   0  0  0  0  0  0  0  0  0  0  0  0
    3.9036  -15.0974   18.1659 C   0  0  0  0  0  0  0  0  0  0  0  0
    2.4511  -15.6783   17.7990 C   0  0  0  0  0  0  0  0  0  0  0  0
    1.6486  -14.9251   18.6360 N   0  0  0  0  0  0  0  0  0  0  0  0
    2.0159  -13.7953   17.8583 C   0  0  0  0  0  0  0  0  0  0  0  0
    4.2063   -9.9038   17.5240 C   0  0  0  0  0  0  0  0  0  0  0  0
    6.3046   -8.3027   14.0218 S   0  0  0  0  0  0  0  0  0  0  0  0
    8.4171   -7.4092   14.5609 C   0  0  0  0  0  0  0  0  0  0  0  0
    9.1182   -9.2930   15.3739 C   0  0  0  0  0  0  0  0  0  0  0  0
    5.9350  -10.9481   19.4113 H   0  0  0  0  0  0  0  0  0  0  0  0
    8.5037  -10.5713   18.0575 H   0  0  0  0  0  0  0  0  0  0  0  0
    2.9407  -11.5005   17.9326 H   0  0  0  0  0  0  0  0  0  0  0  0
    3.8855  -13.2091   19.7703 H   0  0  0  0  0  0  0  0  0  0  0  0
    5.1682  -13.3604   19.1591 H   0  0  0  0  0  0  0  0  0  0  0  0
    4.5149  -15.2607   17.3125 H   0  0  0  0  0  0  0  0  0  0  0  0
    4.4859  -15.7838   18.7525 H   0  0  0  0  0  0  0  0  0  0  0  0
    2.2761  -15.6192   16.7394 H   0  0  0  0  0  0  0  0  0  0  0  0
    2.0700  -16.6930   17.8958 H   0  0  0  0  0  0  0  0  0  0  0  0
    0.6748  -15.1969   18.4837 H   0  0  0  0  0  0  0  0  0  0  0  0
    1.1297  -13.4277   18.4007 H   0  0  0  0  0  0  0  0  0  0  0  0
    1.4298  -13.9548   16.8974 H   0  0  0  0  0  0  0  0  0  0  0  0
    3.2350   -9.5554   17.9282 H   0  0  0  0  0  0  0  0  0  0  0  0
    8.2192   -7.2417   13.4813 H   0  0  0  0  0  0  0  0  0  0  0  0
    7.9230   -6.6910   15.2447 H   0  0  0  0  0  0  0  0  0  0  0  0
    9.7989   -9.9300   14.7655 H   0  0  0  0  0  0  0  0  0  0  0  0
    9.6313   -9.4512   16.2897 H   0  0  0  0  0  0  0  0  0  0  0  0
  1  2  2  0
  2  3  1  0
  3  4  2  0
  4  5  1  0
  5  6  1  0
  6  7  1  0
  7  8  1  0
  8  9  1  0
  9 10  1  0
 10 11  1  0
  5 12  2  0
  4 13  1  0
 13 14  1  0
 14 15  1  0
 12  1  1  0
 15  3  1  0
 11  6  1  0
  1 16  1  0
  2 17  1  0
  6 18  1  0
  7 19  1  0
  7 20  1  0
  8 21  1  0
  8 22  1  0
  9 23  1  0
  9 24  1  0
 10 25  1  0
 11 26  1  0
 11 27  1  0
 12 28  1  0
 14 29  1  0
 14 30  1  0
 15 31  1  0
 15 32  1  0
M  END
>  <Energy>  (1122) 
1510.0128088394017

>  <compound_id>  (1122) 
49674

>  <target_id>  (1122) 
1

>  <reference_id>  (1122) 
20

>  <inspiration_ids>  (1122) 
[9, 20]

>  <energy_score>  (1122) 
1441.2398685937724

>  <distance_score>  (1122) 
15.147092115665082

>  <path>  (1122) 
/opt/xchem-fragalysis-2/maxwin/BulkDock/SCRATCH/511022/C49674-P20/C49674-P20.minimised.mol

>  <scratch_subdir>  (1122) 
/opt/xchem-fragalysis-2/maxwin/BulkDock/SCRATCH/511022/C49674-P20

>  <fragmenstein_runtime>  (1122) 
5.0574986934661865

>  <fragmenstein_outcome>  (1122) 
too moved

>  <fragmenstein_mode>  (1122) 
expansion

>  <fragmenstein_error>  (1122) 


$$$$
C49675-P9
     RDKit          3D

 37 39  0  0  0  0  0  0  0  0999 V2000
    6.1803   -7.6821   18.3037 C   0  0  0  0  0  0  0  0  0  0  0  0
    6.2212   -6.9523   16.6078 C   0  0  0  0  0  0  0  0  0  0  0  0
    7.1875   -7.8738   15.1244 C   0  0  0  0  0  0  0  0  0  0  0  0
    8.2956   -9.4572   15.9259 C   0  0  0  0  0  0  0  0  0  0  0  0
    8.1387  -10.0057   17.6261 C   0  0  0  0  0  0  0  0  0  0  0  0
    7.0355   -9.2130   18.7779 C   0  0  0  0  0  0  0  0  0  0  0  0
    6.9148  -10.1214   20.1010 C   0  0  0  0  0  0  0  0  0  0  0  0
    6.7718  -11.6482   19.8014 C   0  0  0  0  0  0  0  0  0  0  0  0
    5.9505  -12.5874   20.6900 C   0  0  0  0  0  0  0  0  0  0  0  0
    5.8429  -12.0796   22.1068 C   0  0  0  0  0  0  0  0  0  0  0  0
    5.3792  -10.6994   22.1577 N   0  0  0  0  0  0  0  0  0  0  0  0
    6.2233   -9.7162   21.4259 C   0  0  0  0  0  0  0  0  0  0  0  0
   10.1454   -8.6136   15.6269 C   0  0  0  0  0  0  0  0  0  0  0  0
   11.1577   -6.6630   16.0272 C   0  0  0  0  0  0  0  0  0  0  0  0
   10.7698   -5.7764   14.9532 C   0  0  0  0  0  0  0  0  0  0  0  0
    8.6961   -6.4821   14.9198 C   0  0  0  0  0  0  0  0  0  0  0  0
    5.5610   -7.1838   19.0509 H   0  0  0  0  0  0  0  0  0  0  0  0
    5.7942   -5.9605   16.4326 H   0  0  0  0  0  0  0  0  0  0  0  0
    8.7560  -10.8445   17.9384 H   0  0  0  0  0  0  0  0  0  0  0  0
    7.9757  -10.0449   20.4017 H   0  0  0  0  0  0  0  0  0  0  0  0
    6.3952  -11.7554   18.7994 H   0  0  0  0  0  0  0  0  0  0  0  0
    7.7944  -12.0502   19.7977 H   0  0  0  0  0  0  0  0  0  0  0  0
    4.9639  -12.7743   20.2616 H   0  0  0  0  0  0  0  0  0  0  0  0
    6.4322  -13.5731   20.7015 H   0  0  0  0  0  0  0  0  0  0  0  0
    5.1473  -12.7129   22.6682 H   0  0  0  0  0  0  0  0  0  0  0  0
    6.8156  -12.1553   22.6077 H   0  0  0  0  0  0  0  0  0  0  0  0
    5.3086  -10.4031   23.1329 H   0  0  0  0  0  0  0  0  0  0  0  0
    7.0218   -9.4373   22.1293 H   0  0  0  0  0  0  0  0  0  0  0  0
    5.6680   -8.7817   21.2875 H   0  0  0  0  0  0  0  0  0  0  0  0
   10.2766   -9.1691   14.7139 H   0  0  0  0  0  0  0  0  0  0  0  0
   10.7619   -9.4157   16.1449 H   0  0  0  0  0  0  0  0  0  0  0  0
   12.2729   -6.8584   16.0677 H   0  0  0  0  0  0  0  0  0  0  0  0
   11.1709   -6.0302   16.8983 H   0  0  0  0  0  0  0  0  0  0  0  0
   10.8393   -4.6420   15.0922 H   0  0  0  0  0  0  0  0  0  0  0  0
   11.4440   -5.6934   14.1446 H   0  0  0  0  0  0  0  0  0  0  0  0
    9.1855   -7.1406   15.4996 H   0  0  0  0  0  0  0  0  0  0  0  0
    8.0753   -5.6991   15.3600 H   0  0  0  0  0  0  0  0  0  0  0  0
  1  2  2  0
  2  3  1  0
  3  4  2  0
  4  5  1  0
  5  6  2  0
  6  7  1  0
  7  8  1  0
  8  9  1  0
  9 10  1  0
 10 11  1  0
 11 12  1  0
  4 13  1  0
 13 14  1  0
 14 15  1  0
 15 16  1  0
  6  1  1  0
 12  7  1  0
 16  3  1  0
  1 17  1  0
  2 18  1  0
  5 19  1  0
  7 20  1  0
  8 21  1  0
  8 22  1  0
  9 23  1  0
  9 24  1  0
 10 25  1  0
 10 26  1  0
 11 27  1  0
 12 28  1  0
 12 29  1  0
 13 30  1  0
 13 31  1  0
 14 32  1  0
 14 33  1  0
 15 34  1  0
 15 35  1  0
 16 36  1  0
 16 37  1  0
M  END
>  <Energy>  (1123) 
1025.725183837754

>  <compound_id>  (1123) 
49675

>  <target_id>  (1123) 
1

>  <reference_id>  (1123) 
9

>  <inspiration_ids>  (1123) 
[9, 20]

>  <energy_score>  (1123) 
963.1137274953622

>  <distance_score>  (1123) 
18.074847678297502

>  <path>  (1123) 
/opt/xchem-fragalysis-2/maxwin/BulkDock/SCRATCH/511022/C49675-P9/C49675-P9.minimised.mol

>  <scratch_subdir>  (1123) 
/opt/xchem-fragalysis-2/maxwin/BulkDock/SCRATCH/511022/C49675-P9

>  <fragmenstein_runtime>  (1123) 
8.108238935470581

>  <fragmenstein_outcome>  (1123) 
too moved

>  <fragmenstein_mode>  (1123) 
expansion

>  <fragmenstein_error>  (1123) 


$$$$
C49675-P20
     RDKit          3D

 37 39  0  0  0  0  0  0  0  0999 V2000
   -0.7974  -12.9092   10.4565 C   0  0  0  0  0  0  0  0  0  0  0  0
   -0.3743  -12.3855    9.2073 C   0  0  0  0  0  0  0  0  0  0  0  0
    0.7473  -11.6128    9.1042 C   0  0  0  0  0  0  0  0  0  0  0  0
    1.3179  -11.2490   10.2996 C   0  0  0  0  0  0  0  0  0  0  0  0
    0.7609  -11.7539   11.5795 C   0  0  0  0  0  0  0  0  0  0  0  0
   -0.2207  -12.7439   11.7801 C   0  0  0  0  0  0  0  0  0  0  0  0
   -0.8633  -13.7692   13.3227 C   0  0  0  0  0  0  0  0  0  0  0  0
   -0.4605  -15.0510   11.9017 C   0  0  0  0  0  0  0  0  0  0  0  0
   -1.7098  -15.7598   11.0218 C   0  0  0  0  0  0  0  0  0  0  0  0
   -3.2399  -15.2735   11.1231 C   0  0  0  0  0  0  0  0  0  0  0  0
   -3.9767  -14.9293   12.4039 N   0  0  0  0  0  0  0  0  0  0  0  0
   -3.1461  -14.0891   13.6435 C   0  0  0  0  0  0  0  0  0  0  0  0
    2.6032  -10.4523   10.2281 C   0  0  0  0  0  0  0  0  0  0  0  0
    3.1521  -10.0355    8.8577 C   0  0  0  0  0  0  0  0  0  0  0  0
    2.7847  -11.0404    7.7825 C   0  0  0  0  0  0  0  0  0  0  0  0
    1.2708  -11.2103    7.7579 C   0  0  0  0  0  0  0  0  0  0  0  0
   -1.6764  -13.5114   10.3130 H   0  0  0  0  0  0  0  0  0  0  0  0
   -0.9317  -12.6697    8.3166 H   0  0  0  0  0  0  0  0  0  0  0  0
    1.2939  -11.3643   12.4013 H   0  0  0  0  0  0  0  0  0  0  0  0
   -0.0447  -14.1502   13.8540 H   0  0  0  0  0  0  0  0  0  0  0  0
    0.1346  -15.8437   12.3578 H   0  0  0  0  0  0  0  0  0  0  0  0
    0.3299  -14.7439   11.2060 H   0  0  0  0  0  0  0  0  0  0  0  0
   -1.4155  -15.7091    9.9646 H   0  0  0  0  0  0  0  0  0  0  0  0
   -1.6890  -16.8354   11.2481 H   0  0  0  0  0  0  0  0  0  0  0  0
   -3.8269  -16.0867   10.6734 H   0  0  0  0  0  0  0  0  0  0  0  0
   -3.4085  -14.4469   10.4269 H   0  0  0  0  0  0  0  0  0  0  0  0
   -4.0987  -15.8450   12.8528 H   0  0  0  0  0  0  0  0  0  0  0  0
   -3.9782  -13.3486   13.6293 H   0  0  0  0  0  0  0  0  0  0  0  0
   -3.4553  -14.6852   14.5746 H   0  0  0  0  0  0  0  0  0  0  0  0
    3.3496  -11.0836   10.7066 H   0  0  0  0  0  0  0  0  0  0  0  0
    2.4691   -9.5090   10.7378 H   0  0  0  0  0  0  0  0  0  0  0  0
    4.2372   -9.8957    8.9050 H   0  0  0  0  0  0  0  0  0  0  0  0
    2.7274   -9.0601    8.5844 H   0  0  0  0  0  0  0  0  0  0  0  0
    3.2751  -12.0007    7.9862 H   0  0  0  0  0  0  0  0  0  0  0  0
    3.1381  -10.6936    6.8053 H   0  0  0  0  0  0  0  0  0  0  0  0
    1.0190  -11.9709    7.0090 H   0  0  0  0  0  0  0  0  0  0  0  0
    0.7857  -10.2749    7.4535 H   0  0  0  0  0  0  0  0  0  0  0  0
  1  2  2  0
  2  3  1  0
  3  4  2  0
  4  5  1  0
  5  6  2  0
  6  7  1  0
  7  8  1  0
  8  9  1  0
  9 10  1  0
 10 11  1  0
 11 12  1  0
  4 13  1  0
 13 14  1  0
 14 15  1  0
 15 16  1  0
  6  1  1  0
 12  7  1  0
 16  3  1  0
  1 17  1  0
  2 18  1  0
  5 19  1  0
  7 20  1  0
  8 21  1  0
  8 22  1  0
  9 23  1  0
  9 24  1  0
 10 25  1  0
 10 26  1  0
 11 27  1  0
 12 28  1  0
 12 29  1  0
 13 30  1  0
 13 31  1  0
 14 32  1  0
 14 33  1  0
 15 34  1  0
 15 35  1  0
 16 36  1  0
 16 37  1  0
M  END
>  <Energy>  (1124) 
464.55473853887457

>  <compound_id>  (1124) 
49675

>  <target_id>  (1124) 
1

>  <reference_id>  (1124) 
20

>  <inspiration_ids>  (1124) 
[9, 20]

>  <energy_score>  (1124) 
401.9432821964774

>  <distance_score>  (1124) 
15.520082218524024

>  <path>  (1124) 
/opt/xchem-fragalysis-2/maxwin/BulkDock/SCRATCH/511022/C49675-P20/C49675-P20.minimised.mol

>  <scratch_subdir>  (1124) 
/opt/xchem-fragalysis-2/maxwin/BulkDock/SCRATCH/511022/C49675-P20

>  <fragmenstein_runtime>  (1124) 
16.948190689086914

>  <fragmenstein_outcome>  (1124) 
too moved

>  <fragmenstein_mode>  (1124) 
expansion

>  <fragmenstein_error>  (1124) 


$$$$
C49678-P9
     RDKit          3D

 32 34  0  0  0  0  0  0  0  0999 V2000
    6.1567  -10.1729   14.0769 C   0  0  0  0  0  0  0  0  0  0  0  0
    7.9060   -9.9728   14.9814 C   0  0  0  0  0  0  0  0  0  0  0  0
    9.1435  -10.2365   15.1130 C   0  0  0  0  0  0  0  0  0  0  0  0
    8.4419  -10.8443   14.1576 C   0  0  0  0  0  0  0  0  0  0  0  0
    6.6275  -11.6189   13.5781 C   0  0  0  0  0  0  0  0  0  0  0  0
    5.2692  -11.0178   13.6478 C   0  0  0  0  0  0  0  0  0  0  0  0
    3.3305  -10.5617   13.5273 C   0  0  0  0  0  0  0  0  0  0  0  0
    1.5887  -11.7946   13.7972 C   0  0  0  0  0  0  0  0  0  0  0  0
    0.4279  -12.4064   12.7095 C   0  0  0  0  0  0  0  0  0  0  0  0
    0.1628  -11.3904   11.7201 C   0  0  0  0  0  0  0  0  0  0  0  0
    1.3379  -10.7065   11.2033 N   0  0  0  0  0  0  0  0  0  0  0  0
    2.7229  -10.5185   11.6570 C   0  0  0  0  0  0  0  0  0  0  0  0
   10.6025  -11.5778   14.2346 S   0  0  0  0  0  0  0  0  0  0  0  0
   10.5480  -11.9531   15.9466 C   0  0  0  0  0  0  0  0  0  0  0  0
    9.9914  -10.6193   16.2493 C   0  0  0  0  0  0  0  0  0  0  0  0
    5.4640   -9.2832   14.1787 H   0  0  0  0  0  0  0  0  0  0  0  0
    7.8540  -10.0433   16.1141 H   0  0  0  0  0  0  0  0  0  0  0  0
    6.5719  -12.6649   13.3160 H   0  0  0  0  0  0  0  0  0  0  0  0
    3.3630   -9.8943   14.3506 H   0  0  0  0  0  0  0  0  0  0  0  0
    1.6888  -12.3213   14.7643 H   0  0  0  0  0  0  0  0  0  0  0  0
    1.7821  -12.8557   13.7054 H   0  0  0  0  0  0  0  0  0  0  0  0
   -0.5317  -12.6528   13.1707 H   0  0  0  0  0  0  0  0  0  0  0  0
    0.7423  -13.3399   12.2130 H   0  0  0  0  0  0  0  0  0  0  0  0
   -0.5457  -10.7557   12.2293 H   0  0  0  0  0  0  0  0  0  0  0  0
   -0.5202  -11.7959   10.9853 H   0  0  0  0  0  0  0  0  0  0  0  0
    1.1670  -10.1140   10.4052 H   0  0  0  0  0  0  0  0  0  0  0  0
    3.3035  -11.1374   10.9372 H   0  0  0  0  0  0  0  0  0  0  0  0
    3.1552   -9.5900   11.4184 H   0  0  0  0  0  0  0  0  0  0  0  0
   11.5234  -12.1398   16.4012 H   0  0  0  0  0  0  0  0  0  0  0  0
    9.8704  -12.7842   16.1398 H   0  0  0  0  0  0  0  0  0  0  0  0
   10.8318   -9.9249   16.3238 H   0  0  0  0  0  0  0  0  0  0  0  0
    9.4630  -10.6762   17.2052 H   0  0  0  0  0  0  0  0  0  0  0  0
  1  2  2  0
  2  3  1  0
  3  4  2  0
  4  5  1  0
  5  6  2  0
  6  7  1  0
  7  8  1  0
  8  9  1  0
  9 10  1  0
 10 11  1  0
 11 12  1  0
  4 13  1  0
 13 14  1  0
 14 15  1  0
  6  1  1  0
 12  7  1  0
 15  3  1  0
  1 16  1  0
  2 17  1  0
  5 18  1  0
  7 19  1  0
  8 20  1  0
  8 21  1  0
  9 22  1  0
  9 23  1  0
 10 24  1  0
 10 25  1  0
 11 26  1  0
 12 27  1  0
 12 28  1  0
 14 29  1  0
 14 30  1  0
 15 31  1  0
 15 32  1  0
M  END
>  <Energy>  (1125) 
949.11350497320007

>  <compound_id>  (1125) 
49678

>  <target_id>  (1125) 
1

>  <reference_id>  (1125) 
9

>  <inspiration_ids>  (1125) 
[9, 20]

>  <energy_score>  (1125) 
879.9849842197232

>  <distance_score>  (1125) 
15.815992455920815

>  <path>  (1125) 
/opt/xchem-fragalysis-2/maxwin/BulkDock/SCRATCH/511022/C49678-P9/C49678-P9.minimised.mol

>  <scratch_subdir>  (1125) 
/opt/xchem-fragalysis-2/maxwin/BulkDock/SCRATCH/511022/C49678-P9

>  <fragmenstein_runtime>  (1125) 
7.409262180328369

>  <fragmenstein_outcome>  (1125) 
too moved

>  <fragmenstein_mode>  (1125) 
expansion

>  <fragmenstein_error>  (1125) 


$$$$
C49678-P20
     RDKit          3D

 32 34  0  0  0  0  0  0  0  0999 V2000
   -2.9515   -9.7843   18.3649 C   0  0  0  0  0  0  0  0  0  0  0  0
   -1.9393   -8.7995   18.5511 C   0  0  0  0  0  0  0  0  0  0  0  0
   -1.5825   -7.9441   17.5188 C   0  0  0  0  0  0  0  0  0  0  0  0
   -2.3289   -7.9950   16.3460 C   0  0  0  0  0  0  0  0  0  0  0  0
   -3.4040   -8.9204   16.1773 C   0  0  0  0  0  0  0  0  0  0  0  0
   -3.6988   -9.9061   17.1691 C   0  0  0  0  0  0  0  0  0  0  0  0
   -4.6016  -11.1705   16.8326 C   0  0  0  0  0  0  0  0  0  0  0  0
   -4.2005  -12.5176   17.5000 C   0  0  0  0  0  0  0  0  0  0  0  0
   -4.9734  -13.7268   16.9198 C   0  0  0  0  0  0  0  0  0  0  0  0
   -6.3037  -13.3410   16.2756 C   0  0  0  0  0  0  0  0  0  0  0  0
   -6.9476  -12.2600   17.0178 N   0  0  0  0  0  0  0  0  0  0  0  0
   -6.1344  -11.0151   17.0515 C   0  0  0  0  0  0  0  0  0  0  0  0
   -1.6670   -6.8588   15.1430 S   0  0  0  0  0  0  0  0  0  0  0  0
   -0.5564   -6.0553   16.3530 C   0  0  0  0  0  0  0  0  0  0  0  0
   -0.3681   -7.0493   17.4995 C   0  0  0  0  0  0  0  0  0  0  0  0
   -3.1102  -10.4947   19.1761 H   0  0  0  0  0  0  0  0  0  0  0  0
   -1.3922   -8.7804   19.4915 H   0  0  0  0  0  0  0  0  0  0  0  0
   -3.9254   -8.9440   15.2213 H   0  0  0  0  0  0  0  0  0  0  0  0
   -4.4554  -11.3204   15.7527 H   0  0  0  0  0  0  0  0  0  0  0  0
   -4.4120  -12.4547   18.5762 H   0  0  0  0  0  0  0  0  0  0  0  0
   -3.1257  -12.7065   17.4234 H   0  0  0  0  0  0  0  0  0  0  0  0
   -5.1386  -14.4523   17.7257 H   0  0  0  0  0  0  0  0  0  0  0  0
   -4.3505  -14.2275   16.1689 H   0  0  0  0  0  0  0  0  0  0  0  0
   -6.1496  -13.0308   15.2351 H   0  0  0  0  0  0  0  0  0  0  0  0
   -6.9660  -14.2129   16.2428 H   0  0  0  0  0  0  0  0  0  0  0  0
   -7.1017  -12.5712   17.9780 H   0  0  0  0  0  0  0  0  0  0  0  0
   -6.5274  -10.3316   16.2890 H   0  0  0  0  0  0  0  0  0  0  0  0
   -6.3171  -10.5221   18.0145 H   0  0  0  0  0  0  0  0  0  0  0  0
   -1.0578   -5.1511   16.7151 H   0  0  0  0  0  0  0  0  0  0  0  0
    0.3939   -5.7633   15.8981 H   0  0  0  0  0  0  0  0  0  0  0  0
    0.5237   -7.6632   17.3272 H   0  0  0  0  0  0  0  0  0  0  0  0
   -0.2457   -6.5214   18.4509 H   0  0  0  0  0  0  0  0  0  0  0  0
  1  2  2  0
  2  3  1  0
  3  4  2  0
  4  5  1  0
  5  6  2  0
  6  7  1  0
  7  8  1  0
  8  9  1  0
  9 10  1  0
 10 11  1  0
 11 12  1  0
  4 13  1  0
 13 14  1  0
 14 15  1  0
  6  1  1  0
 12  7  1  0
 15  3  1  0
  1 16  1  0
  2 17  1  0
  5 18  1  0
  7 19  1  0
  8 20  1  0
  8 21  1  0
  9 22  1  0
  9 23  1  0
 10 24  1  0
 10 25  1  0
 11 26  1  0
 12 27  1  0
 12 28  1  0
 14 29  1  0
 14 30  1  0
 15 31  1  0
 15 32  1  0
M  END
>  <Energy>  (1126) 
53.108470882175709

>  <compound_id>  (1126) 
49678

>  <target_id>  (1126) 
1

>  <reference_id>  (1126) 
20

>  <inspiration_ids>  (1126) 
[9, 20]

>  <energy_score>  (1126) 
-16.020049871306583

>  <distance_score>  (1126) 
15.6938649180073

>  <path>  (1126) 
/opt/xchem-fragalysis-2/maxwin/BulkDock/SCRATCH/511022/C49678-P20/C49678-P20.minimised.mol

>  <scratch_subdir>  (1126) 
/opt/xchem-fragalysis-2/maxwin/BulkDock/SCRATCH/511022/C49678-P20

>  <fragmenstein_runtime>  (1126) 
7.7987916469573975

>  <fragmenstein_outcome>  (1126) 
too moved

>  <fragmenstein_mode>  (1126) 
expansion

>  <fragmenstein_error>  (1126) 


$$$$
C49680-P9
     RDKit          3D

 32 34  0  0  0  0  0  0  0  0999 V2000
    3.7064   -9.8014    9.1062 C   0  0  0  0  0  0  0  0  0  0  0  0
    3.3542  -11.0846    9.3029 C   0  0  0  0  0  0  0  0  0  0  0  0
    2.0284  -11.1071    9.9201 C   0  0  0  0  0  0  0  0  0  0  0  0
    1.2411  -12.1773   10.3963 C   0  0  0  0  0  0  0  0  0  0  0  0
    0.2599  -11.9801   11.3811 C   0  0  0  0  0  0  0  0  0  0  0  0
   -0.4014  -13.0992   12.2171 C   0  0  0  0  0  0  0  0  0  0  0  0
   -0.6923  -14.3815   12.8473 C   0  0  0  0  0  0  0  0  0  0  0  0
   -1.8244  -14.6715   14.6506 C   0  0  0  0  0  0  0  0  0  0  0  0
   -1.4780  -13.8417   16.5380 C   0  0  0  0  0  0  0  0  0  0  0  0
   -1.1273  -13.9874   15.1463 C   0  0  0  0  0  0  0  0  0  0  0  0
   -0.7856  -12.8463   13.5778 N   0  0  0  0  0  0  0  0  0  0  0  0
   -0.2216  -10.6427   11.3788 C   0  0  0  0  0  0  0  0  0  0  0  0
    0.3965   -9.5646   10.6903 C   0  0  0  0  0  0  0  0  0  0  0  0
    1.6000   -9.7978   10.0673 C   0  0  0  0  0  0  0  0  0  0  0  0
    2.6058   -8.8467    9.5057 C   0  0  0  0  0  0  0  0  0  0  0  0
    4.6481   -9.4783    8.6873 H   0  0  0  0  0  0  0  0  0  0  0  0
    3.9423  -11.9640    9.0984 H   0  0  0  0  0  0  0  0  0  0  0  0
    1.4142  -13.1823   10.0343 H   0  0  0  0  0  0  0  0  0  0  0  0
   -1.0130  -13.3087   11.3189 H   0  0  0  0  0  0  0  0  0  0  0  0
   -1.0606  -14.9359   11.9397 H   0  0  0  0  0  0  0  0  0  0  0  0
    0.3266  -14.7645   12.7590 H   0  0  0  0  0  0  0  0  0  0  0  0
   -3.1481  -14.6102   14.5260 H   0  0  0  0  0  0  0  0  0  0  0  0
   -2.2729  -15.8397   14.7905 H   0  0  0  0  0  0  0  0  0  0  0  0
   -0.7283  -14.2645   17.2292 H   0  0  0  0  0  0  0  0  0  0  0  0
   -1.9591  -12.9475   17.0433 H   0  0  0  0  0  0  0  0  0  0  0  0
   -2.3812  -13.9874   16.0226 H   0  0  0  0  0  0  0  0  0  0  0  0
   -0.1016  -14.3389   15.6568 H   0  0  0  0  0  0  0  0  0  0  0  0
    0.1181  -12.4641   13.8674 H   0  0  0  0  0  0  0  0  0  0  0  0
   -1.0987  -10.3899   11.9680 H   0  0  0  0  0  0  0  0  0  0  0  0
   -0.0109   -8.5630   10.7802 H   0  0  0  0  0  0  0  0  0  0  0  0
    2.2130   -8.3157    8.6340 H   0  0  0  0  0  0  0  0  0  0  0  0
    2.9635   -8.1388   10.2575 H   0  0  0  0  0  0  0  0  0  0  0  0
  1  2  2  0
  2  3  1  0
  3  4  2  0
  4  5  1  0
  5  6  1  0
  6  7  1  0
  7  8  1  0
  8  9  1  0
  9 10  1  0
 10 11  1  0
  5 12  2  0
 12 13  1  0
 13 14  2  0
 14 15  1  0
 15  1  1  0
 14  3  1  0
 11  6  1  0
  1 16  1  0
  2 17  1  0
  4 18  1  0
  6 19  1  0
  7 20  1  0
  7 21  1  0
  8 22  1  0
  8 23  1  0
  9 24  1  0
  9 25  1  0
 10 26  1  0
 10 27  1  0
 11 28  1  0
 12 29  1  0
 13 30  1  0
 15 31  1  0
 15 32  1  0
M  END
>  <Energy>  (1127) 
896.88365409727635

>  <compound_id>  (1127) 
49680

>  <target_id>  (1127) 
1

>  <reference_id>  (1127) 
9

>  <inspiration_ids>  (1127) 
[9, 20]

>  <energy_score>  (1127) 
845.2038214780616

>  <distance_score>  (1127) 
15.884404221819029

>  <path>  (1127) 
/opt/xchem-fragalysis-2/maxwin/BulkDock/SCRATCH/511022/C49680-P9/C49680-P9.minimised.mol

>  <scratch_subdir>  (1127) 
/opt/xchem-fragalysis-2/maxwin/BulkDock/SCRATCH/511022/C49680-P9

>  <fragmenstein_runtime>  (1127) 
13.453504085540771

>  <fragmenstein_outcome>  (1127) 
too moved

>  <fragmenstein_mode>  (1127) 
expansion

>  <fragmenstein_error>  (1127) 


$$$$
C49680-P20
     RDKit          3D

 32 34  0  0  0  0  0  0  0  0999 V2000
    7.8377  -14.3502   12.4739 C   0  0  0  0  0  0  0  0  0  0  0  0
    7.2818  -15.5606   12.6766 C   0  0  0  0  0  0  0  0  0  0  0  0
    5.9735  -15.4275   13.3214 C   0  0  0  0  0  0  0  0  0  0  0  0
    4.6229  -16.5407   13.1104 C   0  0  0  0  0  0  0  0  0  0  0  0
    2.8287  -16.0701   13.4989 C   0  0  0  0  0  0  0  0  0  0  0  0
    1.8232  -17.3550   12.3065 C   0  0  0  0  0  0  0  0  0  0  0  0
    0.8049  -16.7447   11.2756 C   0  0  0  0  0  0  0  0  0  0  0  0
    0.0288  -17.7545   10.3918 C   0  0  0  0  0  0  0  0  0  0  0  0
   -0.3350  -19.0916   11.0283 C   0  0  0  0  0  0  0  0  0  0  0  0
    0.8334  -19.6326   11.8287 C   0  0  0  0  0  0  0  0  0  0  0  0
    1.1984  -18.6557   12.8335 N   0  0  0  0  0  0  0  0  0  0  0  0
    2.3081  -13.9689   13.6836 C   0  0  0  0  0  0  0  0  0  0  0  0
    4.2711  -13.0852   14.2443 C   0  0  0  0  0  0  0  0  0  0  0  0
    5.9831  -13.7368   13.8414 C   0  0  0  0  0  0  0  0  0  0  0  0
    7.0759  -13.1253   12.9581 C   0  0  0  0  0  0  0  0  0  0  0  0
    8.7887  -14.2272   11.9694 H   0  0  0  0  0  0  0  0  0  0  0  0
    7.6837  -16.5098   12.3579 H   0  0  0  0  0  0  0  0  0  0  0  0
    4.7928  -17.5160   12.6558 H   0  0  0  0  0  0  0  0  0  0  0  0
    2.6847  -17.7237   11.7182 H   0  0  0  0  0  0  0  0  0  0  0  0
    1.3478  -16.1145   10.5618 H   0  0  0  0  0  0  0  0  0  0  0  0
    0.1289  -16.0519   11.7714 H   0  0  0  0  0  0  0  0  0  0  0  0
   -0.8712  -17.2726    9.9923 H   0  0  0  0  0  0  0  0  0  0  0  0
    0.6621  -17.9710    9.5202 H   0  0  0  0  0  0  0  0  0  0  0  0
   -0.6100  -19.8061   10.2435 H   0  0  0  0  0  0  0  0  0  0  0  0
   -1.2168  -18.9895   11.6666 H   0  0  0  0  0  0  0  0  0  0  0  0
    1.6853  -19.8701   11.1818 H   0  0  0  0  0  0  0  0  0  0  0  0
    0.5313  -20.5628   12.3214 H   0  0  0  0  0  0  0  0  0  0  0  0
    1.8841  -19.0063   13.5066 H   0  0  0  0  0  0  0  0  0  0  0  0
    1.2411  -13.5763   13.4925 H   0  0  0  0  0  0  0  0  0  0  0  0
    4.4534  -11.9694   14.5130 H   0  0  0  0  0  0  0  0  0  0  0  0
    7.8004  -12.4606   13.4158 H   0  0  0  0  0  0  0  0  0  0  0  0
    6.6174  -12.6207   12.1017 H   0  0  0  0  0  0  0  0  0  0  0  0
  1  2  2  0
  2  3  1  0
  3  4  2  0
  4  5  1  0
  5  6  1  0
  6  7  1  0
  7  8  1  0
  8  9  1  0
  9 10  1  0
 10 11  1  0
  5 12  2  0
 12 13  1  0
 13 14  2  0
 14 15  1  0
 15  1  1  0
 14  3  1  0
 11  6  1  0
  1 16  1  0
  2 17  1  0
  4 18  1  0
  6 19  1  0
  7 20  1  0
  7 21  1  0
  8 22  1  0
  8 23  1  0
  9 24  1  0
  9 25  1  0
 10 26  1  0
 10 27  1  0
 11 28  1  0
 12 29  1  0
 13 30  1  0
 15 31  1  0
 15 32  1  0
M  END
>  <Energy>  (1128) 
865.37200634672035

>  <compound_id>  (1128) 
49680

>  <target_id>  (1128) 
1

>  <reference_id>  (1128) 
20

>  <inspiration_ids>  (1128) 
[9, 20]

>  <energy_score>  (1128) 
813.6921737275103

>  <distance_score>  (1128) 
14.857803488508269

>  <path>  (1128) 
/opt/xchem-fragalysis-2/maxwin/BulkDock/SCRATCH/511022/C49680-P20/C49680-P20.minimised.mol

>  <scratch_subdir>  (1128) 
/opt/xchem-fragalysis-2/maxwin/BulkDock/SCRATCH/511022/C49680-P20

>  <fragmenstein_runtime>  (1128) 
9.07913851737976

>  <fragmenstein_outcome>  (1128) 
too moved

>  <fragmenstein_mode>  (1128) 
expansion

>  <fragmenstein_error>  (1128) 


$$$$
C49682-P9
     RDKit          3D

 27 28  0  0  0  0  0  0  0  0999 V2000
    5.2413  -11.9680   12.3408 C   0  0  0  0  0  0  0  0  0  0  0  0
    4.4734  -12.2831   14.1751 C   0  0  0  0  0  0  0  0  0  0  0  0
    2.3554  -12.8229   14.3621 C   0  0  0  0  0  0  0  0  0  0  0  0
    1.0030  -12.9810   12.9227 C   0  0  0  0  0  0  0  0  0  0  0  0
   -0.8914  -13.7980   13.2611 C   0  0  0  0  0  0  0  0  0  0  0  0
   -3.0962  -14.0937   13.7434 C   0  0  0  0  0  0  0  0  0  0  0  0
   -4.2035  -14.8626   12.5055 C   0  0  0  0  0  0  0  0  0  0  0  0
   -3.5879  -15.4702   11.2418 C   0  0  0  0  0  0  0  0  0  0  0  0
   -2.0292  -15.2022   10.9643 C   0  0  0  0  0  0  0  0  0  0  0  0
   -0.8986  -14.4175   11.7154 N   0  0  0  0  0  0  0  0  0  0  0  0
    1.7537  -12.3665   11.1853 C   0  0  0  0  0  0  0  0  0  0  0  0
    3.7241  -11.9979   10.9906 C   0  0  0  0  0  0  0  0  0  0  0  0
    6.0671  -11.2699   12.1937 H   0  0  0  0  0  0  0  0  0  0  0  0
    4.6768  -11.4089   14.8226 H   0  0  0  0  0  0  0  0  0  0  0  0
    1.8967  -12.6306   15.3390 H   0  0  0  0  0  0  0  0  0  0  0  0
   -0.8815  -12.6907   13.3034 H   0  0  0  0  0  0  0  0  0  0  0  0
   -3.2953  -14.7556   14.6728 H   0  0  0  0  0  0  0  0  0  0  0  0
   -3.9431  -13.3812   13.7134 H   0  0  0  0  0  0  0  0  0  0  0  0
   -4.9363  -14.0970   12.2075 H   0  0  0  0  0  0  0  0  0  0  0  0
   -4.7804  -15.6181   13.0586 H   0  0  0  0  0  0  0  0  0  0  0  0
   -3.8006  -16.5468   11.2164 H   0  0  0  0  0  0  0  0  0  0  0  0
   -4.1743  -15.1251   10.3764 H   0  0  0  0  0  0  0  0  0  0  0  0
   -2.1506  -14.7183   10.0277 H   0  0  0  0  0  0  0  0  0  0  0  0
   -1.5670  -16.1479   10.6423 H   0  0  0  0  0  0  0  0  0  0  0  0
   -0.6720  -13.5978   11.1617 H   0  0  0  0  0  0  0  0  0  0  0  0
    1.2789  -11.3318   11.1295 H   0  0  0  0  0  0  0  0  0  0  0  0
    3.9527  -11.3773   10.1076 H   0  0  0  0  0  0  0  0  0  0  0  0
  1  2  2  0
  2  3  1  0
  3  4  2  0
  4  5  1  0
  5  6  1  0
  6  7  1  0
  7  8  1  0
  8  9  1  0
  9 10  1  0
  4 11  1  0
 11 12  2  0
 12  1  1  0
 10  5  1  0
  1 13  1  0
  2 14  1  0
  3 15  1  0
  5 16  1  0
  6 17  1  0
  6 18  1  0
  7 19  1  0
  7 20  1  0
  8 21  1  0
  8 22  1  0
  9 23  1  0
  9 24  1  0
 10 25  1  0
 11 26  1  0
 12 27  1  0
M  END
>  <Energy>  (1129) 
1260.3450984470117

>  <compound_id>  (1129) 
49682

>  <target_id>  (1129) 
1

>  <reference_id>  (1129) 
9

>  <inspiration_ids>  (1129) 
[9, 20]

>  <energy_score>  (1129) 
1219.540659797852

>  <distance_score>  (1129) 
14.67901291234715

>  <path>  (1129) 
/opt/xchem-fragalysis-2/maxwin/BulkDock/SCRATCH/511022/C49682-P9/C49682-P9.minimised.mol

>  <scratch_subdir>  (1129) 
/opt/xchem-fragalysis-2/maxwin/BulkDock/SCRATCH/511022/C49682-P9

>  <fragmenstein_runtime>  (1129) 
5.913666248321533

>  <fragmenstein_outcome>  (1129) 
too moved

>  <fragmenstein_mode>  (1129) 
expansion

>  <fragmenstein_error>  (1129) 


$$$$
C49682-P20
     RDKit          3D

 27 28  0  0  0  0  0  0  0  0999 V2000
   -5.6250  -12.2539   11.2428 C   0  0  0  0  0  0  0  0  0  0  0  0
   -5.7561  -12.7747   12.5193 C   0  0  0  0  0  0  0  0  0  0  0  0
   -5.8102  -14.1658   12.7194 C   0  0  0  0  0  0  0  0  0  0  0  0
   -5.7715  -15.0764   11.6423 C   0  0  0  0  0  0  0  0  0  0  0  0
   -6.0840  -16.5762   11.8769 C   0  0  0  0  0  0  0  0  0  0  0  0
   -7.5670  -16.9165   11.5619 C   0  0  0  0  0  0  0  0  0  0  0  0
   -7.7674  -18.0380   10.5382 C   0  0  0  0  0  0  0  0  0  0  0  0
   -6.8342  -19.2350   10.7118 C   0  0  0  0  0  0  0  0  0  0  0  0
   -5.5171  -18.8866   11.4005 C   0  0  0  0  0  0  0  0  0  0  0  0
   -5.1393  -17.4861   11.1977 N   0  0  0  0  0  0  0  0  0  0  0  0
   -5.5540  -14.5244   10.3693 C   0  0  0  0  0  0  0  0  0  0  0  0
   -5.4951  -13.1318   10.1703 C   0  0  0  0  0  0  0  0  0  0  0  0
   -5.6040  -11.1787   11.0892 H   0  0  0  0  0  0  0  0  0  0  0  0
   -5.8744  -12.0939   13.3548 H   0  0  0  0  0  0  0  0  0  0  0  0
   -5.9636  -14.5413   13.7295 H   0  0  0  0  0  0  0  0  0  0  0  0
   -5.9353  -16.7426   12.9533 H   0  0  0  0  0  0  0  0  0  0  0  0
   -8.0612  -17.1991   12.4965 H   0  0  0  0  0  0  0  0  0  0  0  0
   -8.1079  -16.0302   11.2061 H   0  0  0  0  0  0  0  0  0  0  0  0
   -8.8102  -18.3725   10.5398 H   0  0  0  0  0  0  0  0  0  0  0  0
   -7.5920  -17.6123    9.5409 H   0  0  0  0  0  0  0  0  0  0  0  0
   -6.6255  -19.6433    9.7152 H   0  0  0  0  0  0  0  0  0  0  0  0
   -7.3370  -20.0363   11.2628 H   0  0  0  0  0  0  0  0  0  0  0  0
   -4.7251  -19.5263   10.9938 H   0  0  0  0  0  0  0  0  0  0  0  0
   -5.5454  -19.1111   12.4711 H   0  0  0  0  0  0  0  0  0  0  0  0
   -5.1496  -17.2814   10.2011 H   0  0  0  0  0  0  0  0  0  0  0  0
   -5.5008  -15.1712    9.4975 H   0  0  0  0  0  0  0  0  0  0  0  0
   -5.3715  -12.7390    9.1642 H   0  0  0  0  0  0  0  0  0  0  0  0
  1  2  2  0
  2  3  1  0
  3  4  2  0
  4  5  1  0
  5  6  1  0
  6  7  1  0
  7  8  1  0
  8  9  1  0
  9 10  1  0
  4 11  1  0
 11 12  2  0
 12  1  1  0
 10  5  1  0
  1 13  1  0
  2 14  1  0
  3 15  1  0
  5 16  1  0
  6 17  1  0
  6 18  1  0
  7 19  1  0
  7 20  1  0
  8 21  1  0
  8 22  1  0
  9 23  1  0
  9 24  1  0
 10 25  1  0
 11 26  1  0
 12 27  1  0
M  END
>  <Energy>  (1130) 
27.32116282371522

>  <compound_id>  (1130) 
49682

>  <target_id>  (1130) 
1

>  <reference_id>  (1130) 
20

>  <inspiration_ids>  (1130) 
[9, 20]

>  <energy_score>  (1130) 
-13.483275825454882

>  <distance_score>  (1130) 
16.462687698937728

>  <path>  (1130) 
/opt/xchem-fragalysis-2/maxwin/BulkDock/SCRATCH/511022/C49682-P20/C49682-P20.minimised.mol

>  <scratch_subdir>  (1130) 
/opt/xchem-fragalysis-2/maxwin/BulkDock/SCRATCH/511022/C49682-P20

>  <fragmenstein_runtime>  (1130) 
5.918272972106934

>  <fragmenstein_outcome>  (1130) 
too moved

>  <fragmenstein_mode>  (1130) 
expansion

>  <fragmenstein_error>  (1130) 


$$$$
C49683-P9
     RDKit          3D

 32 34  0  0  0  0  0  0  0  0999 V2000
    2.8688  -19.2462   14.2963 C   0  0  0  0  0  0  0  0  0  0  0  0
    4.1064  -18.5559   14.2452 C   0  0  0  0  0  0  0  0  0  0  0  0
    4.7825  -18.3003   15.4142 C   0  0  0  0  0  0  0  0  0  0  0  0
    4.1949  -18.6835   16.6234 C   0  0  0  0  0  0  0  0  0  0  0  0
    2.9482  -19.3550   16.6802 C   0  0  0  0  0  0  0  0  0  0  0  0
    2.2409  -19.6705   15.4953 C   0  0  0  0  0  0  0  0  0  0  0  0
    0.9324  -20.5483   15.5123 C   0  0  0  0  0  0  0  0  0  0  0  0
    0.2120  -20.7243   14.1438 C   0  0  0  0  0  0  0  0  0  0  0  0
   -1.0338  -21.6222   14.2162 C   0  0  0  0  0  0  0  0  0  0  0  0
   -1.9806  -21.1624   15.3129 C   0  0  0  0  0  0  0  0  0  0  0  0
   -1.2207  -20.9873   16.6226 C   0  0  0  0  0  0  0  0  0  0  0  0
   -0.0673  -20.0775   16.5024 N   0  0  0  0  0  0  0  0  0  0  0  0
    5.3500  -18.4168   17.9532 S   0  0  0  0  0  0  0  0  0  0  0  0
    6.7392  -18.3692   16.7703 C   0  0  0  0  0  0  0  0  0  0  0  0
    6.1611  -17.7165   15.5178 C   0  0  0  0  0  0  0  0  0  0  0  0
    2.3884  -19.4406   13.3381 H   0  0  0  0  0  0  0  0  0  0  0  0
    4.5106  -18.2631   13.2810 H   0  0  0  0  0  0  0  0  0  0  0  0
    2.5585  -19.6796   17.6421 H   0  0  0  0  0  0  0  0  0  0  0  0
    1.2813  -21.5410   15.8305 H   0  0  0  0  0  0  0  0  0  0  0  0
   -0.0801  -19.7403   13.7529 H   0  0  0  0  0  0  0  0  0  0  0  0
    0.9023  -21.1643   13.4141 H   0  0  0  0  0  0  0  0  0  0  0  0
   -0.7187  -22.6540   14.4151 H   0  0  0  0  0  0  0  0  0  0  0  0
   -1.5493  -21.6247   13.2494 H   0  0  0  0  0  0  0  0  0  0  0  0
   -2.4493  -20.2138   15.0242 H   0  0  0  0  0  0  0  0  0  0  0  0
   -2.7799  -21.8961   15.4485 H   0  0  0  0  0  0  0  0  0  0  0  0
   -1.8996  -20.5845   17.3824 H   0  0  0  0  0  0  0  0  0  0  0  0
   -0.8776  -21.9595   16.9966 H   0  0  0  0  0  0  0  0  0  0  0  0
   -0.3953  -19.1638   16.1936 H   0  0  0  0  0  0  0  0  0  0  0  0
    7.0105  -19.4106   16.5525 H   0  0  0  0  0  0  0  0  0  0  0  0
    7.6392  -17.8993   17.1639 H   0  0  0  0  0  0  0  0  0  0  0  0
    6.0819  -16.6355   15.6054 H   0  0  0  0  0  0  0  0  0  0  0  0
    6.7721  -17.9647   14.6444 H   0  0  0  0  0  0  0  0  0  0  0  0
  1  2  2  0
  2  3  1  0
  3  4  2  0
  4  5  1  0
  5  6  2  0
  6  7  1  0
  7  8  1  0
  8  9  1  0
  9 10  1  0
 10 11  1  0
 11 12  1  0
  4 13  1  0
 13 14  1  0
 14 15  1  0
  6  1  1  0
 12  7  1  0
 15  3  1  0
  1 16  1  0
  2 17  1  0
  5 18  1  0
  7 19  1  0
  8 20  1  0
  8 21  1  0
  9 22  1  0
  9 23  1  0
 10 24  1  0
 10 25  1  0
 11 26  1  0
 11 27  1  0
 12 28  1  0
 14 29  1  0
 14 30  1  0
 15 31  1  0
 15 32  1  0
M  END
>  <Energy>  (1131) 
24.614768171373193

>  <compound_id>  (1131) 
49683

>  <target_id>  (1131) 
1

>  <reference_id>  (1131) 
9

>  <inspiration_ids>  (1131) 
[9, 20]

>  <energy_score>  (1131) 
-17.720937880146735

>  <distance_score>  (1131) 
15.59202819110964

>  <path>  (1131) 
/opt/xchem-fragalysis-2/maxwin/BulkDock/SCRATCH/511022/C49683-P9/C49683-P9.minimised.mol

>  <scratch_subdir>  (1131) 
/opt/xchem-fragalysis-2/maxwin/BulkDock/SCRATCH/511022/C49683-P9

>  <fragmenstein_runtime>  (1131) 
7.475155591964722

>  <fragmenstein_outcome>  (1131) 
too moved

>  <fragmenstein_mode>  (1131) 
expansion

>  <fragmenstein_error>  (1131) 


$$$$
C49683-P20
     RDKit          3D

 32 34  0  0  0  0  0  0  0  0999 V2000
    5.2362  -12.2522   13.5872 C   0  0  0  0  0  0  0  0  0  0  0  0
    6.3272  -13.0266   13.4228 C   0  0  0  0  0  0  0  0  0  0  0  0
    7.1477  -12.0716   13.6528 C   0  0  0  0  0  0  0  0  0  0  0  0
    6.6305  -10.6177   14.1249 C   0  0  0  0  0  0  0  0  0  0  0  0
    5.1942  -10.2273   13.9285 C   0  0  0  0  0  0  0  0  0  0  0  0
    4.7748  -10.9897   12.9585 C   0  0  0  0  0  0  0  0  0  0  0  0
    3.4593  -11.0270   11.3881 C   0  0  0  0  0  0  0  0  0  0  0  0
    2.9308   -9.8981   10.3352 C   0  0  0  0  0  0  0  0  0  0  0  0
    2.8837  -10.2237    8.8371 C   0  0  0  0  0  0  0  0  0  0  0  0
    2.2189  -11.5531    8.5426 C   0  0  0  0  0  0  0  0  0  0  0  0
    3.0817  -12.5955    9.1944 C   0  0  0  0  0  0  0  0  0  0  0  0
    3.1039  -12.3894   10.6292 N   0  0  0  0  0  0  0  0  0  0  0  0
    8.4006  -10.3253   15.7044 S   0  0  0  0  0  0  0  0  0  0  0  0
    9.4260  -11.6620   15.6617 C   0  0  0  0  0  0  0  0  0  0  0  0
    8.9880  -11.4498   14.2850 C   0  0  0  0  0  0  0  0  0  0  0  0
    4.7875  -12.3309   14.5807 H   0  0  0  0  0  0  0  0  0  0  0  0
    6.5543  -13.9601   13.8105 H   0  0  0  0  0  0  0  0  0  0  0  0
    4.8427   -9.2039   13.9178 H   0  0  0  0  0  0  0  0  0  0  0  0
    2.5660  -11.0055   11.9955 H   0  0  0  0  0  0  0  0  0  0  0  0
    1.8736   -9.7322   10.5561 H   0  0  0  0  0  0  0  0  0  0  0  0
    3.3946   -8.9158   10.4498 H   0  0  0  0  0  0  0  0  0  0  0  0
    2.3354   -9.4275    8.3187 H   0  0  0  0  0  0  0  0  0  0  0  0
    3.9024  -10.2092    8.4309 H   0  0  0  0  0  0  0  0  0  0  0  0
    2.1758  -11.7201    7.4608 H   0  0  0  0  0  0  0  0  0  0  0  0
    1.1900  -11.5746    8.9207 H   0  0  0  0  0  0  0  0  0  0  0  0
    2.6613  -13.5871    8.9895 H   0  0  0  0  0  0  0  0  0  0  0  0
    4.0839  -12.6125    8.7568 H   0  0  0  0  0  0  0  0  0  0  0  0
    2.1097  -12.5039   10.8452 H   0  0  0  0  0  0  0  0  0  0  0  0
    9.1713  -12.6072   16.1133 H   0  0  0  0  0  0  0  0  0  0  0  0
   10.4673  -11.3997   15.8654 H   0  0  0  0  0  0  0  0  0  0  0  0
    9.3678  -10.6066   13.6943 H   0  0  0  0  0  0  0  0  0  0  0  0
    9.9405  -11.9488   13.8881 H   0  0  0  0  0  0  0  0  0  0  0  0
  1  2  2  0
  2  3  1  0
  3  4  2  0
  4  5  1  0
  5  6  2  0
  6  7  1  0
  7  8  1  0
  8  9  1  0
  9 10  1  0
 10 11  1  0
 11 12  1  0
  4 13  1  0
 13 14  1  0
 14 15  1  0
  6  1  1  0
 12  7  1  0
 15  3  1  0
  1 16  1  0
  2 17  1  0
  5 18  1  0
  7 19  1  0
  8 20  1  0
  8 21  1  0
  9 22  1  0
  9 23  1  0
 10 24  1  0
 10 25  1  0
 11 26  1  0
 11 27  1  0
 12 28  1  0
 14 29  1  0
 14 30  1  0
 15 31  1  0
 15 32  1  0
M  END
>  <Energy>  (1132) 
558.07046369354453

>  <compound_id>  (1132) 
49683

>  <target_id>  (1132) 
1

>  <reference_id>  (1132) 
20

>  <inspiration_ids>  (1132) 
[9, 20]

>  <energy_score>  (1132) 
515.7347576420285

>  <distance_score>  (1132) 
17.068802330274565

>  <path>  (1132) 
/opt/xchem-fragalysis-2/maxwin/BulkDock/SCRATCH/511022/C49683-P20/C49683-P20.minimised.mol

>  <scratch_subdir>  (1132) 
/opt/xchem-fragalysis-2/maxwin/BulkDock/SCRATCH/511022/C49683-P20

>  <fragmenstein_runtime>  (1132) 
8.7319176197052

>  <fragmenstein_outcome>  (1132) 
too moved

>  <fragmenstein_mode>  (1132) 
expansion

>  <fragmenstein_error>  (1132) 


$$$$
C49692-P9
     RDKit          3D

 27 28  0  0  0  0  0  0  0  0999 V2000
   -3.5719  -10.9066   18.1357 C   0  0  0  0  0  0  0  0  0  0  0  0
   -2.8074  -11.9684   18.5883 C   0  0  0  0  0  0  0  0  0  0  0  0
   -3.2418  -13.3022   18.3846 C   0  0  0  0  0  0  0  0  0  0  0  0
   -4.4644  -13.6270   17.7427 C   0  0  0  0  0  0  0  0  0  0  0  0
   -4.9108  -15.1144   17.5837 C   0  0  0  0  0  0  0  0  0  0  0  0
   -6.1106  -15.5614   18.4570 C   0  0  0  0  0  0  0  0  0  0  0  0
   -7.4347  -15.7632   17.7137 C   0  0  0  0  0  0  0  0  0  0  0  0
   -7.2569  -16.5532   16.4285 C   0  0  0  0  0  0  0  0  0  0  0  0
   -6.3545  -15.8103   15.5532 N   0  0  0  0  0  0  0  0  0  0  0  0
   -5.0134  -15.6827   16.1362 C   0  0  0  0  0  0  0  0  0  0  0  0
   -5.2144  -12.5302   17.3040 C   0  0  0  0  0  0  0  0  0  0  0  0
   -4.7725  -11.1921   17.4918 C   0  0  0  0  0  0  0  0  0  0  0  0
   -3.2604   -9.8812   18.3097 H   0  0  0  0  0  0  0  0  0  0  0  0
   -1.8958  -11.7480   19.1329 H   0  0  0  0  0  0  0  0  0  0  0  0
   -2.6351  -14.1144   18.7772 H   0  0  0  0  0  0  0  0  0  0  0  0
   -4.0577  -15.6628   18.0137 H   0  0  0  0  0  0  0  0  0  0  0  0
   -5.8485  -16.5296   18.9065 H   0  0  0  0  0  0  0  0  0  0  0  0
   -6.2592  -14.8720   19.2967 H   0  0  0  0  0  0  0  0  0  0  0  0
   -8.1441  -16.2800   18.3704 H   0  0  0  0  0  0  0  0  0  0  0  0
   -7.8727  -14.7820   17.4893 H   0  0  0  0  0  0  0  0  0  0  0  0
   -6.8731  -17.5601   16.6292 H   0  0  0  0  0  0  0  0  0  0  0  0
   -8.2276  -16.6609   15.9335 H   0  0  0  0  0  0  0  0  0  0  0  0
   -6.2819  -16.3029   14.6612 H   0  0  0  0  0  0  0  0  0  0  0  0
   -4.5602  -16.6833   16.1331 H   0  0  0  0  0  0  0  0  0  0  0  0
   -4.4033  -15.0730   15.4612 H   0  0  0  0  0  0  0  0  0  0  0  0
   -6.1702  -12.7018   16.8087 H   0  0  0  0  0  0  0  0  0  0  0  0
   -5.4051  -10.3778   17.1431 H   0  0  0  0  0  0  0  0  0  0  0  0
  1  2  2  0
  2  3  1  0
  3  4  2  0
  4  5  1  0
  5  6  1  0
  6  7  1  0
  7  8  1  0
  8  9  1  0
  9 10  1  0
  4 11  1  0
 11 12  2  0
 12  1  1  0
 10  5  1  0
  1 13  1  0
  2 14  1  0
  3 15  1  0
  5 16  1  0
  6 17  1  0
  6 18  1  0
  7 19  1  0
  7 20  1  0
  8 21  1  0
  8 22  1  0
  9 23  1  0
 10 24  1  0
 10 25  1  0
 11 26  1  0
 12 27  1  0
M  END
>  <Energy>  (1133) 
42.670977893570353

>  <compound_id>  (1133) 
49692

>  <target_id>  (1133) 
1

>  <reference_id>  (1133) 
9

>  <inspiration_ids>  (1133) 
[9, 20]

>  <energy_score>  (1133) 
-13.0790813807169

>  <distance_score>  (1133) 
15.576494688482466

>  <path>  (1133) 
/opt/xchem-fragalysis-2/maxwin/BulkDock/SCRATCH/511022/C49692-P9/C49692-P9.minimised.mol

>  <scratch_subdir>  (1133) 
/opt/xchem-fragalysis-2/maxwin/BulkDock/SCRATCH/511022/C49692-P9

>  <fragmenstein_runtime>  (1133) 
6.919639825820923

>  <fragmenstein_outcome>  (1133) 
too moved

>  <fragmenstein_mode>  (1133) 
expansion

>  <fragmenstein_error>  (1133) 


$$$$
C49692-P20
     RDKit          3D

 27 28  0  0  0  0  0  0  0  0999 V2000
   -2.9864  -10.7316   18.4390 C   0  0  0  0  0  0  0  0  0  0  0  0
   -4.1472  -10.6513   17.6908 C   0  0  0  0  0  0  0  0  0  0  0  0
   -4.8431  -11.8286   17.3185 C   0  0  0  0  0  0  0  0  0  0  0  0
   -4.3963  -13.1324   17.6440 C   0  0  0  0  0  0  0  0  0  0  0  0
   -5.1249  -14.4089   17.0944 C   0  0  0  0  0  0  0  0  0  0  0  0
   -6.6778  -14.3371   17.1462 C   0  0  0  0  0  0  0  0  0  0  0  0
   -7.3747  -15.6765   17.4308 C   0  0  0  0  0  0  0  0  0  0  0  0
   -6.7180  -16.8558   16.7308 C   0  0  0  0  0  0  0  0  0  0  0  0
   -5.2706  -16.9237   16.9075 N   0  0  0  0  0  0  0  0  0  0  0  0
   -4.6764  -15.7957   17.6387 C   0  0  0  0  0  0  0  0  0  0  0  0
   -3.2009  -13.1727   18.3806 C   0  0  0  0  0  0  0  0  0  0  0  0
   -2.5357  -11.9947   18.7936 C   0  0  0  0  0  0  0  0  0  0  0  0
   -2.4605   -9.8423   18.7734 H   0  0  0  0  0  0  0  0  0  0  0  0
   -4.5504   -9.6813   17.4101 H   0  0  0  0  0  0  0  0  0  0  0  0
   -5.7546  -11.7107   16.7321 H   0  0  0  0  0  0  0  0  0  0  0  0
   -4.8492  -14.4116   16.0279 H   0  0  0  0  0  0  0  0  0  0  0  0
   -7.0064  -13.6223   17.9110 H   0  0  0  0  0  0  0  0  0  0  0  0
   -7.0389  -13.9423   16.1875 H   0  0  0  0  0  0  0  0  0  0  0  0
   -8.4305  -15.6090   17.1436 H   0  0  0  0  0  0  0  0  0  0  0  0
   -7.3630  -15.8525   18.5147 H   0  0  0  0  0  0  0  0  0  0  0  0
   -7.1675  -17.7773   17.1126 H   0  0  0  0  0  0  0  0  0  0  0  0
   -6.9315  -16.8109   15.6572 H   0  0  0  0  0  0  0  0  0  0  0  0
   -5.0109  -17.8071   17.3477 H   0  0  0  0  0  0  0  0  0  0  0  0
   -4.9031  -15.8745   18.7094 H   0  0  0  0  0  0  0  0  0  0  0  0
   -3.5898  -15.8917   17.5419 H   0  0  0  0  0  0  0  0  0  0  0  0
   -2.7757  -14.1261   18.6801 H   0  0  0  0  0  0  0  0  0  0  0  0
   -1.6761  -12.0657   19.4417 H   0  0  0  0  0  0  0  0  0  0  0  0
  1  2  2  0
  2  3  1  0
  3  4  2  0
  4  5  1  0
  5  6  1  0
  6  7  1  0
  7  8  1  0
  8  9  1  0
  9 10  1  0
  4 11  1  0
 11 12  2  0
 12  1  1  0
 10  5  1  0
  1 13  1  0
  2 14  1  0
  3 15  1  0
  5 16  1  0
  6 17  1  0
  6 18  1  0
  7 19  1  0
  7 20  1  0
  8 21  1  0
  8 22  1  0
  9 23  1  0
 10 24  1  0
 10 25  1  0
 11 26  1  0
 12 27  1  0
M  END
>  <Energy>  (1134) 
44.512553030372345

>  <compound_id>  (1134) 
49692

>  <target_id>  (1134) 
1

>  <reference_id>  (1134) 
20

>  <inspiration_ids>  (1134) 
[9, 20]

>  <energy_score>  (1134) 
-11.237506243914424

>  <distance_score>  (1134) 
15.515168788137743

>  <path>  (1134) 
/opt/xchem-fragalysis-2/maxwin/BulkDock/SCRATCH/511022/C49692-P20/C49692-P20.minimised.mol

>  <scratch_subdir>  (1134) 
/opt/xchem-fragalysis-2/maxwin/BulkDock/SCRATCH/511022/C49692-P20

>  <fragmenstein_runtime>  (1134) 
8.006079912185669

>  <fragmenstein_outcome>  (1134) 
too moved

>  <fragmenstein_mode>  (1134) 
expansion

>  <fragmenstein_error>  (1134) 


$$$$
C49698-P9
     RDKit          3D

 34 36  0  0  0  0  0  0  0  0999 V2000
   -2.1905   -9.1217   19.6628 C   0  0  0  0  0  0  0  0  0  0  0  0
   -1.1629   -8.1785   19.9098 C   0  0  0  0  0  0  0  0  0  0  0  0
   -0.6339   -7.4671   18.8562 C   0  0  0  0  0  0  0  0  0  0  0  0
   -1.1748   -7.6261   17.5815 C   0  0  0  0  0  0  0  0  0  0  0  0
   -2.2517   -8.5220   17.3412 C   0  0  0  0  0  0  0  0  0  0  0  0
   -2.7650   -9.3471   18.3828 C   0  0  0  0  0  0  0  0  0  0  0  0
   -3.8941  -10.4561   18.2653 C   0  0  0  0  0  0  0  0  0  0  0  0
   -4.8738  -10.3723   17.0727 C   0  0  0  0  0  0  0  0  0  0  0  0
   -5.9089  -11.5264   16.9992 C   0  0  0  0  0  0  0  0  0  0  0  0
   -5.6181  -12.7135   17.9147 C   0  0  0  0  0  0  0  0  0  0  0  0
   -4.1971  -13.0230   17.8843 N   0  0  0  0  0  0  0  0  0  0  0  0
   -3.3787  -11.9291   18.4531 C   0  0  0  0  0  0  0  0  0  0  0  0
   -0.4568   -6.6941   16.6422 C   0  0  0  0  0  0  0  0  0  0  0  0
    0.8617   -6.4320   17.3978 C   0  0  0  0  0  0  0  0  0  0  0  0
    0.4877   -6.4798   18.8827 C   0  0  0  0  0  0  0  0  0  0  0  0
   -2.5441   -9.7046   20.5130 H   0  0  0  0  0  0  0  0  0  0  0  0
   -0.7593   -8.0718   20.9117 H   0  0  0  0  0  0  0  0  0  0  0  0
   -2.6730   -8.5714   16.3411 H   0  0  0  0  0  0  0  0  0  0  0  0
   -4.5366  -10.2583   19.1388 H   0  0  0  0  0  0  0  0  0  0  0  0
   -4.3200  -10.3190   16.1322 H   0  0  0  0  0  0  0  0  0  0  0  0
   -5.4164   -9.4188   17.1218 H   0  0  0  0  0  0  0  0  0  0  0  0
   -5.9762  -11.8661   15.9582 H   0  0  0  0  0  0  0  0  0  0  0  0
   -6.9008  -11.1295   17.2486 H   0  0  0  0  0  0  0  0  0  0  0  0
   -6.1943  -13.5813   17.5760 H   0  0  0  0  0  0  0  0  0  0  0  0
   -5.9393  -12.4971   18.9406 H   0  0  0  0  0  0  0  0  0  0  0  0
   -4.0160  -13.8783   18.4108 H   0  0  0  0  0  0  0  0  0  0  0  0
   -2.3679  -12.0250   18.0487 H   0  0  0  0  0  0  0  0  0  0  0  0
   -3.2738  -12.1069   19.5319 H   0  0  0  0  0  0  0  0  0  0  0  0
   -1.0338   -5.7698   16.5298 H   0  0  0  0  0  0  0  0  0  0  0  0
   -0.2960   -7.1413   15.6641 H   0  0  0  0  0  0  0  0  0  0  0  0
    1.3309   -5.4869   17.1091 H   0  0  0  0  0  0  0  0  0  0  0  0
    1.5753   -7.2383   17.1820 H   0  0  0  0  0  0  0  0  0  0  0  0
    0.1287   -5.5078   19.2357 H   0  0  0  0  0  0  0  0  0  0  0  0
    1.3292   -6.8158   19.4950 H   0  0  0  0  0  0  0  0  0  0  0  0
  1  2  2  0
  2  3  1  0
  3  4  2  0
  4  5  1  0
  5  6  2  0
  6  7  1  0
  7  8  1  0
  8  9  1  0
  9 10  1  0
 10 11  1  0
 11 12  1  0
  4 13  1  0
 13 14  1  0
 14 15  1  0
  6  1  1  0
 12  7  1  0
 15  3  1  0
  1 16  1  0
  2 17  1  0
  5 18  1  0
  7 19  1  0
  8 20  1  0
  8 21  1  0
  9 22  1  0
  9 23  1  0
 10 24  1  0
 10 25  1  0
 11 26  1  0
 12 27  1  0
 12 28  1  0
 13 29  1  0
 13 30  1  0
 14 31  1  0
 14 32  1  0
 15 33  1  0
 15 34  1  0
M  END
>  <Energy>  (1135) 
53.95380426249983

>  <compound_id>  (1135) 
49698

>  <target_id>  (1135) 
1

>  <reference_id>  (1135) 
9

>  <inspiration_ids>  (1135) 
[9, 20]

>  <energy_score>  (1135) 
-13.948636760962017

>  <distance_score>  (1135) 
15.943509586967263

>  <path>  (1135) 
/opt/xchem-fragalysis-2/maxwin/BulkDock/SCRATCH/511022/C49698-P9/C49698-P9.minimised.mol

>  <scratch_subdir>  (1135) 
/opt/xchem-fragalysis-2/maxwin/BulkDock/SCRATCH/511022/C49698-P9

>  <fragmenstein_runtime>  (1135) 
8.797027587890625

>  <fragmenstein_outcome>  (1135) 
too moved

>  <fragmenstein_mode>  (1135) 
expansion

>  <fragmenstein_error>  (1135) 


$$$$
C49698-P20
     RDKit          3D

 34 36  0  0  0  0  0  0  0  0999 V2000
    3.6383  -11.3413   15.2015 C   0  0  0  0  0  0  0  0  0  0  0  0
    4.6557  -10.4465   14.0769 C   0  0  0  0  0  0  0  0  0  0  0  0
    5.8750  -10.8319   13.6258 C   0  0  0  0  0  0  0  0  0  0  0  0
    5.6318  -12.0712   13.7740 C   0  0  0  0  0  0  0  0  0  0  0  0
    4.2522  -12.4266   14.7991 C   0  0  0  0  0  0  0  0  0  0  0  0
    2.3014  -12.6601   15.1769 C   0  0  0  0  0  0  0  0  0  0  0  0
    0.7726  -13.1541   13.7540 C   0  0  0  0  0  0  0  0  0  0  0  0
    0.3139  -14.1887   12.2154 C   0  0  0  0  0  0  0  0  0  0  0  0
   -1.2169  -14.5795   11.1780 C   0  0  0  0  0  0  0  0  0  0  0  0
   -3.0348  -14.8002   11.6560 C   0  0  0  0  0  0  0  0  0  0  0  0
   -3.1295  -14.1111   13.4663 N   0  0  0  0  0  0  0  0  0  0  0  0
   -1.1465  -13.8444   14.1343 C   0  0  0  0  0  0  0  0  0  0  0  0
    6.9765  -12.8551   13.2942 C   0  0  0  0  0  0  0  0  0  0  0  0
    7.9930  -11.7370   12.8727 C   0  0  0  0  0  0  0  0  0  0  0  0
    7.3182  -10.4387   13.3020 C   0  0  0  0  0  0  0  0  0  0  0  0
    3.5637  -10.8633   16.2285 H   0  0  0  0  0  0  0  0  0  0  0  0
    4.2281   -9.4970   13.8005 H   0  0  0  0  0  0  0  0  0  0  0  0
    4.8121  -13.2608   14.3201 H   0  0  0  0  0  0  0  0  0  0  0  0
    0.5846  -12.2338   13.2585 H   0  0  0  0  0  0  0  0  0  0  0  0
    0.7008  -15.1860   12.4023 H   0  0  0  0  0  0  0  0  0  0  0  0
    0.8583  -13.6740   11.4225 H   0  0  0  0  0  0  0  0  0  0  0  0
   -1.2300  -13.7883   10.4142 H   0  0  0  0  0  0  0  0  0  0  0  0
   -0.9597  -15.5115   10.6567 H   0  0  0  0  0  0  0  0  0  0  0  0
   -3.3177  -15.8667   11.7053 H   0  0  0  0  0  0  0  0  0  0  0  0
   -3.7511  -14.2825   11.0035 H   0  0  0  0  0  0  0  0  0  0  0  0
   -3.8273  -13.3766   13.4073 H   0  0  0  0  0  0  0  0  0  0  0  0
   -1.4455  -14.5171   15.0383 H   0  0  0  0  0  0  0  0  0  0  0  0
   -1.3589  -13.8702   15.4793 H   0  0  0  0  0  0  0  0  0  0  0  0
    6.7960  -13.5956   12.5086 H   0  0  0  0  0  0  0  0  0  0  0  0
    7.5478  -13.3271   14.0830 H   0  0  0  0  0  0  0  0  0  0  0  0
    8.2492  -11.7480   11.8122 H   0  0  0  0  0  0  0  0  0  0  0  0
    8.9547  -11.8722   13.3863 H   0  0  0  0  0  0  0  0  0  0  0  0
    7.9028  -10.1212   14.1725 H   0  0  0  0  0  0  0  0  0  0  0  0
    7.5481   -9.6256   12.6227 H   0  0  0  0  0  0  0  0  0  0  0  0
  1  2  2  0
  2  3  1  0
  3  4  2  0
  4  5  1  0
  5  6  2  0
  6  7  1  0
  7  8  1  0
  8  9  1  0
  9 10  1  0
 10 11  1  0
 11 12  1  0
  4 13  1  0
 13 14  1  0
 14 15  1  0
  6  1  1  0
 12  7  1  0
 15  3  1  0
  1 16  1  0
  2 17  1  0
  5 18  1  0
  7 19  1  0
  8 20  1  0
  8 21  1  0
  9 22  1  0
  9 23  1  0
 10 24  1  0
 10 25  1  0
 11 26  1  0
 12 27  1  0
 12 28  1  0
 13 29  1  0
 13 30  1  0
 14 31  1  0
 14 32  1  0
 15 33  1  0
 15 34  1  0
M  END
>  <Energy>  (1136) 
1371.7073136430297

>  <compound_id>  (1136) 
49698

>  <target_id>  (1136) 
1

>  <reference_id>  (1136) 
20

>  <inspiration_ids>  (1136) 
[9, 20]

>  <energy_score>  (1136) 
1303.804872619572

>  <distance_score>  (1136) 
14.22731699775413

>  <path>  (1136) 
/opt/xchem-fragalysis-2/maxwin/BulkDock/SCRATCH/511022/C49698-P20/C49698-P20.minimised.mol

>  <scratch_subdir>  (1136) 
/opt/xchem-fragalysis-2/maxwin/BulkDock/SCRATCH/511022/C49698-P20

>  <fragmenstein_runtime>  (1136) 
10.758700132369995

>  <fragmenstein_outcome>  (1136) 
too moved

>  <fragmenstein_mode>  (1136) 
expansion

>  <fragmenstein_error>  (1136) 


$$$$
C49707-P9
     RDKit          3D

 32 34  0  0  0  0  0  0  0  0999 V2000
    7.5423  -15.8490   10.7420 C   0  0  0  0  0  0  0  0  0  0  0  0
    6.8055  -16.7510   11.4167 C   0  0  0  0  0  0  0  0  0  0  0  0
    5.5304  -16.9359   10.7295 C   0  0  0  0  0  0  0  0  0  0  0  0
    4.4066  -17.7390   11.0446 C   0  0  0  0  0  0  0  0  0  0  0  0
    3.2627  -17.7614   10.1964 C   0  0  0  0  0  0  0  0  0  0  0  0
    2.0330  -18.7571   10.3360 C   0  0  0  0  0  0  0  0  0  0  0  0
    0.6240  -18.1106   10.1978 C   0  0  0  0  0  0  0  0  0  0  0  0
   -0.5152  -19.1517   10.2052 C   0  0  0  0  0  0  0  0  0  0  0  0
   -0.4473  -20.1069   11.3915 C   0  0  0  0  0  0  0  0  0  0  0  0
    0.8737  -20.7166   11.4972 N   0  0  0  0  0  0  0  0  0  0  0  0
    1.9677  -19.7149   11.5663 C   0  0  0  0  0  0  0  0  0  0  0  0
    3.3263  -16.8869    9.0698 C   0  0  0  0  0  0  0  0  0  0  0  0
    4.4491  -16.0784    8.7592 C   0  0  0  0  0  0  0  0  0  0  0  0
    5.5539  -16.1298    9.5858 C   0  0  0  0  0  0  0  0  0  0  0  0
    6.8443  -15.3796    9.4922 C   0  0  0  0  0  0  0  0  0  0  0  0
    8.5295  -15.5245   11.0354 H   0  0  0  0  0  0  0  0  0  0  0  0
    7.0752  -17.2723   12.3206 H   0  0  0  0  0  0  0  0  0  0  0  0
    4.4361  -18.3585   11.9362 H   0  0  0  0  0  0  0  0  0  0  0  0
    2.1606  -19.4152    9.4618 H   0  0  0  0  0  0  0  0  0  0  0  0
    0.5523  -17.5377    9.2670 H   0  0  0  0  0  0  0  0  0  0  0  0
    0.4761  -17.3922   11.0101 H   0  0  0  0  0  0  0  0  0  0  0  0
   -0.4646  -19.7295    9.2732 H   0  0  0  0  0  0  0  0  0  0  0  0
   -1.4806  -18.6331   10.2033 H   0  0  0  0  0  0  0  0  0  0  0  0
   -1.1957  -20.8963   11.2624 H   0  0  0  0  0  0  0  0  0  0  0  0
   -0.6955  -19.5882   12.3209 H   0  0  0  0  0  0  0  0  0  0  0  0
    0.9149  -21.2984   12.3342 H   0  0  0  0  0  0  0  0  0  0  0  0
    2.9113  -20.2690   11.6316 H   0  0  0  0  0  0  0  0  0  0  0  0
    1.8746  -19.1468   12.4962 H   0  0  0  0  0  0  0  0  0  0  0  0
    2.4902  -16.8613    8.3723 H   0  0  0  0  0  0  0  0  0  0  0  0
    4.4360  -15.4447    7.8785 H   0  0  0  0  0  0  0  0  0  0  0  0
    7.4070  -15.6637    8.5985 H   0  0  0  0  0  0  0  0  0  0  0  0
    6.6777  -14.3013    9.5160 H   0  0  0  0  0  0  0  0  0  0  0  0
  1  2  2  0
  2  3  1  0
  3  4  2  0
  4  5  1  0
  5  6  1  0
  6  7  1  0
  7  8  1  0
  8  9  1  0
  9 10  1  0
 10 11  1  0
  5 12  2  0
 12 13  1  0
 13 14  2  0
 14 15  1  0
 15  1  1  0
 14  3  1  0
 11  6  1  0
  1 16  1  0
  2 17  1  0
  4 18  1  0
  6 19  1  0
  7 20  1  0
  7 21  1  0
  8 22  1  0
  8 23  1  0
  9 24  1  0
  9 25  1  0
 10 26  1  0
 11 27  1  0
 11 28  1  0
 12 29  1  0
 13 30  1  0
 15 31  1  0
 15 32  1  0
M  END
>  <Energy>  (1137) 
51.831280572150597

>  <compound_id>  (1137) 
49707

>  <target_id>  (1137) 
1

>  <reference_id>  (1137) 
9

>  <inspiration_ids>  (1137) 
[9, 20]

>  <energy_score>  (1137) 
-11.544059893485397

>  <distance_score>  (1137) 
15.774362162838509

>  <path>  (1137) 
/opt/xchem-fragalysis-2/maxwin/BulkDock/SCRATCH/511022/C49707-P9/C49707-P9.minimised.mol

>  <scratch_subdir>  (1137) 
/opt/xchem-fragalysis-2/maxwin/BulkDock/SCRATCH/511022/C49707-P9

>  <fragmenstein_runtime>  (1137) 
9.113962650299072

>  <fragmenstein_outcome>  (1137) 
too moved

>  <fragmenstein_mode>  (1137) 
expansion

>  <fragmenstein_error>  (1137) 


$$$$
C49707-P20
     RDKit          3D

 32 34  0  0  0  0  0  0  0  0999 V2000
    7.3565  -14.0773   21.2352 C   0  0  0  0  0  0  0  0  0  0  0  0
    7.2360  -15.4098   21.0837 C   0  0  0  0  0  0  0  0  0  0  0  0
    5.9499  -15.6990   20.4450 C   0  0  0  0  0  0  0  0  0  0  0  0
    5.3029  -16.9181   20.1291 C   0  0  0  0  0  0  0  0  0  0  0  0
    4.0311  -16.9387   19.4849 C   0  0  0  0  0  0  0  0  0  0  0  0
    3.1769  -18.2527   19.2766 C   0  0  0  0  0  0  0  0  0  0  0  0
    2.8137  -18.6104   17.8099 C   0  0  0  0  0  0  0  0  0  0  0  0
    1.8757  -19.8323   17.6894 C   0  0  0  0  0  0  0  0  0  0  0  0
    0.6557  -19.7651   18.6054 C   0  0  0  0  0  0  0  0  0  0  0  0
    1.0599  -19.5078   19.9844 N   0  0  0  0  0  0  0  0  0  0  0  0
    1.8579  -18.2729   20.1144 C   0  0  0  0  0  0  0  0  0  0  0  0
    3.5489  -15.6785   19.0900 C   0  0  0  0  0  0  0  0  0  0  0  0
    4.1849  -14.4687   19.4271 C   0  0  0  0  0  0  0  0  0  0  0  0
    5.3472  -14.4795   20.1595 C   0  0  0  0  0  0  0  0  0  0  0  0
    6.1410  -13.3439   20.7271 C   0  0  0  0  0  0  0  0  0  0  0  0
    8.2081  -13.5853   21.6826 H   0  0  0  0  0  0  0  0  0  0  0  0
    7.9470  -16.1678   21.3720 H   0  0  0  0  0  0  0  0  0  0  0  0
    5.7693  -17.8560   20.4232 H   0  0  0  0  0  0  0  0  0  0  0  0
    3.8035  -19.0745   19.6525 H   0  0  0  0  0  0  0  0  0  0  0  0
    2.3493  -17.7584   17.3152 H   0  0  0  0  0  0  0  0  0  0  0  0
    3.7356  -18.8088   17.2489 H   0  0  0  0  0  0  0  0  0  0  0  0
    2.4540  -20.7333   17.9325 H   0  0  0  0  0  0  0  0  0  0  0  0
    1.5520  -19.9393   16.6477 H   0  0  0  0  0  0  0  0  0  0  0  0
   -0.0443  -18.9934   18.2805 H   0  0  0  0  0  0  0  0  0  0  0  0
    0.1193  -20.7191   18.5615 H   0  0  0  0  0  0  0  0  0  0  0  0
    0.2293  -19.4352   20.5715 H   0  0  0  0  0  0  0  0  0  0  0  0
    1.2360  -17.4071   19.8654 H   0  0  0  0  0  0  0  0  0  0  0  0
    2.1222  -18.1574   21.1728 H   0  0  0  0  0  0  0  0  0  0  0  0
    2.6279  -15.6061   18.5332 H   0  0  0  0  0  0  0  0  0  0  0  0
    3.7561  -13.5448   19.0773 H   0  0  0  0  0  0  0  0  0  0  0  0
    5.6067  -12.8675   21.5545 H   0  0  0  0  0  0  0  0  0  0  0  0
    6.4049  -12.5971   19.9749 H   0  0  0  0  0  0  0  0  0  0  0  0
  1  2  2  0
  2  3  1  0
  3  4  2  0
  4  5  1  0
  5  6  1  0
  6  7  1  0
  7  8  1  0
  8  9  1  0
  9 10  1  0
 10 11  1  0
  5 12  2  0
 12 13  1  0
 13 14  2  0
 14 15  1  0
 15  1  1  0
 14  3  1  0
 11  6  1  0
  1 16  1  0
  2 17  1  0
  4 18  1  0
  6 19  1  0
  7 20  1  0
  7 21  1  0
  8 22  1  0
  8 23  1  0
  9 24  1  0
  9 25  1  0
 10 26  1  0
 11 27  1  0
 11 28  1  0
 12 29  1  0
 13 30  1  0
 15 31  1  0
 15 32  1  0
M  END
>  <Energy>  (1138) 
51.330290301310285

>  <compound_id>  (1138) 
49707

>  <target_id>  (1138) 
1

>  <reference_id>  (1138) 
20

>  <inspiration_ids>  (1138) 
[9, 20]

>  <energy_score>  (1138) 
-12.045050164327563

>  <distance_score>  (1138) 
15.594840050989413

>  <path>  (1138) 
/opt/xchem-fragalysis-2/maxwin/BulkDock/SCRATCH/511022/C49707-P20/C49707-P20.minimised.mol

>  <scratch_subdir>  (1138) 
/opt/xchem-fragalysis-2/maxwin/BulkDock/SCRATCH/511022/C49707-P20

>  <fragmenstein_runtime>  (1138) 
10.71504831314087

>  <fragmenstein_outcome>  (1138) 
too moved

>  <fragmenstein_mode>  (1138) 
expansion

>  <fragmenstein_error>  (1138) 


$$$$
C49708-P9
     RDKit          3D

 40 42  0  0  0  0  0  0  0  0999 V2000
   -2.1318   -9.2080   20.2140 C   0  0  0  0  0  0  0  0  0  0  0  0
   -1.1829   -8.2092   20.5532 C   0  0  0  0  0  0  0  0  0  0  0  0
   -0.4727   -7.4631   19.5944 C   0  0  0  0  0  0  0  0  0  0  0  0
   -0.8214   -7.6497   18.2522 C   0  0  0  0  0  0  0  0  0  0  0  0
   -1.8491   -8.6299   17.9352 C   0  0  0  0  0  0  0  0  0  0  0  0
   -2.4750   -9.4940   18.8917 C   0  0  0  0  0  0  0  0  0  0  0  0
   -3.3031  -10.7862   18.4979 C   0  0  0  0  0  0  0  0  0  0  0  0
   -3.4587  -11.9181   19.5546 C   0  0  0  0  0  0  0  0  0  0  0  0
   -4.1259  -13.1764   18.9554 C   0  0  0  0  0  0  0  0  0  0  0  0
   -5.4765  -12.8517   18.3273 C   0  0  0  0  0  0  0  0  0  0  0  0
   -5.3432  -11.7866   17.3340 N   0  0  0  0  0  0  0  0  0  0  0  0
   -4.7074  -10.5618   17.8734 C   0  0  0  0  0  0  0  0  0  0  0  0
   -0.0706   -6.9965   17.0988 C   0  0  0  0  0  0  0  0  0  0  0  0
    0.7123   -5.6999   17.3382 C   0  0  0  0  0  0  0  0  0  0  0  0
    2.0308   -5.8879   18.0751 C   0  0  0  0  0  0  0  0  0  0  0  0
    1.9444   -6.7396   19.3352 C   0  0  0  0  0  0  0  0  0  0  0  0
    0.6321   -6.5649   20.0960 C   0  0  0  0  0  0  0  0  0  0  0  0
   -2.5520   -9.7941   21.0280 H   0  0  0  0  0  0  0  0  0  0  0  0
   -0.9536   -8.0846   21.6110 H   0  0  0  0  0  0  0  0  0  0  0  0
   -2.1005   -8.7596   16.8847 H   0  0  0  0  0  0  0  0  0  0  0  0
   -2.6749  -11.2550   17.7451 H   0  0  0  0  0  0  0  0  0  0  0  0
   -2.4762  -12.1906   19.9565 H   0  0  0  0  0  0  0  0  0  0  0  0
   -4.0602  -11.5577   20.3985 H   0  0  0  0  0  0  0  0  0  0  0  0
   -3.4589  -13.6128   18.2010 H   0  0  0  0  0  0  0  0  0  0  0  0
   -4.2553  -13.9274   19.7428 H   0  0  0  0  0  0  0  0  0  0  0  0
   -6.1902  -12.5494   19.1029 H   0  0  0  0  0  0  0  0  0  0  0  0
   -5.8806  -13.7470   17.8432 H   0  0  0  0  0  0  0  0  0  0  0  0
   -6.2685  -11.5493   16.9745 H   0  0  0  0  0  0  0  0  0  0  0  0
   -5.3717  -10.1004   18.6150 H   0  0  0  0  0  0  0  0  0  0  0  0
   -4.6182   -9.8453   17.0485 H   0  0  0  0  0  0  0  0  0  0  0  0
   -0.8099   -6.7804   16.3163 H   0  0  0  0  0  0  0  0  0  0  0  0
    0.6121   -7.7470   16.6937 H   0  0  0  0  0  0  0  0  0  0  0  0
    0.0788   -4.9765   17.8654 H   0  0  0  0  0  0  0  0  0  0  0  0
    0.9379   -5.2449   16.3654 H   0  0  0  0  0  0  0  0  0  0  0  0
    2.7729   -6.3308   17.4000 H   0  0  0  0  0  0  0  0  0  0  0  0
    2.4174   -4.8953   18.3386 H   0  0  0  0  0  0  0  0  0  0  0  0
    2.1028   -7.7950   19.0800 H   0  0  0  0  0  0  0  0  0  0  0  0
    2.7804   -6.4572   19.9874 H   0  0  0  0  0  0  0  0  0  0  0  0
    0.8403   -6.8114   21.1457 H   0  0  0  0  0  0  0  0  0  0  0  0
    0.2939   -5.5224   20.0974 H   0  0  0  0  0  0  0  0  0  0  0  0
  1  2  2  0
  2  3  1  0
  3  4  2  0
  4  5  1  0
  5  6  2  0
  6  7  1  0
  7  8  1  0
  8  9  1  0
  9 10  1  0
 10 11  1  0
 11 12  1  0
  4 13  1  0
 13 14  1  0
 14 15  1  0
 15 16  1  0
 16 17  1  0
  6  1  1  0
 12  7  1  0
 17  3  1  0
  1 18  1  0
  2 19  1  0
  5 20  1  0
  7 21  1  0
  8 22  1  0
  8 23  1  0
  9 24  1  0
  9 25  1  0
 10 26  1  0
 10 27  1  0
 11 28  1  0
 12 29  1  0
 12 30  1  0
 13 31  1  0
 13 32  1  0
 14 33  1  0
 14 34  1  0
 15 35  1  0
 15 36  1  0
 16 37  1  0
 16 38  1  0
 17 39  1  0
 17 40  1  0
M  END
>  <Energy>  (1139) 
55.799879856702496

>  <compound_id>  (1139) 
49708

>  <target_id>  (1139) 
1

>  <reference_id>  (1139) 
9

>  <inspiration_ids>  (1139) 
[9, 20]

>  <energy_score>  (1139) 
-26.482335003550176

>  <distance_score>  (1139) 
16.070273943743608

>  <path>  (1139) 
/opt/xchem-fragalysis-2/maxwin/BulkDock/SCRATCH/511022/C49708-P9/C49708-P9.minimised.mol

>  <scratch_subdir>  (1139) 
/opt/xchem-fragalysis-2/maxwin/BulkDock/SCRATCH/511022/C49708-P9

>  <fragmenstein_runtime>  (1139) 
16.63187861442566

>  <fragmenstein_outcome>  (1139) 
too moved

>  <fragmenstein_mode>  (1139) 
expansion

>  <fragmenstein_error>  (1139) 


$$$$
C49708-P20
     RDKit          3D

 40 42  0  0  0  0  0  0  0  0999 V2000
    3.5832  -15.7688   19.1665 C   0  0  0  0  0  0  0  0  0  0  0  0
    4.3775  -14.7930   19.7934 C   0  0  0  0  0  0  0  0  0  0  0  0
    5.7034  -15.0357   20.1497 C   0  0  0  0  0  0  0  0  0  0  0  0
    6.2720  -16.2344   19.6864 C   0  0  0  0  0  0  0  0  0  0  0  0
    5.4200  -17.2418   19.0780 C   0  0  0  0  0  0  0  0  0  0  0  0
    4.0331  -17.0667   18.8787 C   0  0  0  0  0  0  0  0  0  0  0  0
    2.9729  -18.1098   18.3525 C   0  0  0  0  0  0  0  0  0  0  0  0
    1.8819  -18.4506   19.4167 C   0  0  0  0  0  0  0  0  0  0  0  0
    0.7759  -19.4041   18.9188 C   0  0  0  0  0  0  0  0  0  0  0  0
    1.3265  -20.6189   18.1859 C   0  0  0  0  0  0  0  0  0  0  0  0
    2.3082  -20.2436   17.1697 N   0  0  0  0  0  0  0  0  0  0  0  0
    3.4297  -19.4567   17.7402 C   0  0  0  0  0  0  0  0  0  0  0  0
    7.7752  -16.4650   19.7422 C   0  0  0  0  0  0  0  0  0  0  0  0
    8.4277  -16.4574   21.1212 C   0  0  0  0  0  0  0  0  0  0  0  0
    8.5362  -15.0968   21.7887 C   0  0  0  0  0  0  0  0  0  0  0  0
    7.1871  -14.5089   22.1751 C   0  0  0  0  0  0  0  0  0  0  0  0
    6.4036  -13.9827   20.9781 C   0  0  0  0  0  0  0  0  0  0  0  0
    2.5584  -15.5119   18.9360 H   0  0  0  0  0  0  0  0  0  0  0  0
    3.9186  -13.8454   20.0445 H   0  0  0  0  0  0  0  0  0  0  0  0
    5.8705  -18.1894   18.7825 H   0  0  0  0  0  0  0  0  0  0  0  0
    2.4904  -17.5910   17.5182 H   0  0  0  0  0  0  0  0  0  0  0  0
    1.4157  -17.5360   19.7994 H   0  0  0  0  0  0  0  0  0  0  0  0
    2.3777  -18.9166   20.2793 H   0  0  0  0  0  0  0  0  0  0  0  0
    0.0923  -18.8650   18.2643 H   0  0  0  0  0  0  0  0  0  0  0  0
    0.1771  -19.7344   19.7758 H   0  0  0  0  0  0  0  0  0  0  0  0
    1.7930  -21.3065   18.9015 H   0  0  0  0  0  0  0  0  0  0  0  0
    0.5070  -21.1700   17.7119 H   0  0  0  0  0  0  0  0  0  0  0  0
    1.8608  -19.6843   16.4405 H   0  0  0  0  0  0  0  0  0  0  0  0
    3.9626  -20.0587   18.4866 H   0  0  0  0  0  0  0  0  0  0  0  0
    4.1478  -19.2612   16.9351 H   0  0  0  0  0  0  0  0  0  0  0  0
    7.9828  -17.4461   19.2946 H   0  0  0  0  0  0  0  0  0  0  0  0
    8.2876  -15.7473   19.0963 H   0  0  0  0  0  0  0  0  0  0  0  0
    7.8967  -17.1523   21.7842 H   0  0  0  0  0  0  0  0  0  0  0  0
    9.4454  -16.8542   21.0122 H   0  0  0  0  0  0  0  0  0  0  0  0
    9.1317  -15.2148   22.7028 H   0  0  0  0  0  0  0  0  0  0  0  0
    9.0893  -14.4013   21.1462 H   0  0  0  0  0  0  0  0  0  0  0  0
    7.3772  -13.6637   22.8491 H   0  0  0  0  0  0  0  0  0  0  0  0
    6.5948  -15.2357   22.7443 H   0  0  0  0  0  0  0  0  0  0  0  0
    7.0434  -13.3473   20.3608 H   0  0  0  0  0  0  0  0  0  0  0  0
    5.6412  -13.3053   21.3876 H   0  0  0  0  0  0  0  0  0  0  0  0
  1  2  2  0
  2  3  1  0
  3  4  2  0
  4  5  1  0
  5  6  2  0
  6  7  1  0
  7  8  1  0
  8  9  1  0
  9 10  1  0
 10 11  1  0
 11 12  1  0
  4 13  1  0
 13 14  1  0
 14 15  1  0
 15 16  1  0
 16 17  1  0
  6  1  1  0
 12  7  1  0
 17  3  1  0
  1 18  1  0
  2 19  1  0
  5 20  1  0
  7 21  1  0
  8 22  1  0
  8 23  1  0
  9 24  1  0
  9 25  1  0
 10 26  1  0
 10 27  1  0
 11 28  1  0
 12 29  1  0
 12 30  1  0
 13 31  1  0
 13 32  1  0
 14 33  1  0
 14 34  1  0
 15 35  1  0
 15 36  1  0
 16 37  1  0
 16 38  1  0
 17 39  1  0
 17 40  1  0
M  END
>  <Energy>  (1140) 
54.727078707316025

>  <compound_id>  (1140) 
49708

>  <target_id>  (1140) 
1

>  <reference_id>  (1140) 
20

>  <inspiration_ids>  (1140) 
[9, 20]

>  <energy_score>  (1140) 
-27.555136152937564

>  <distance_score>  (1140) 
15.844012730079406

>  <path>  (1140) 
/opt/xchem-fragalysis-2/maxwin/BulkDock/SCRATCH/511022/C49708-P20/C49708-P20.minimised.mol

>  <scratch_subdir>  (1140) 
/opt/xchem-fragalysis-2/maxwin/BulkDock/SCRATCH/511022/C49708-P20

>  <fragmenstein_runtime>  (1140) 
9.47766900062561

>  <fragmenstein_outcome>  (1140) 
too moved

>  <fragmenstein_mode>  (1140) 
expansion

>  <fragmenstein_error>  (1140) 


$$$$
C49715-P9
     RDKit          3D

 40 42  0  0  0  0  0  0  0  0999 V2000
   -0.0799  -12.0197   12.1023 C   0  0  0  0  0  0  0  0  0  0  0  0
    0.8686  -10.8676   11.6102 C   0  0  0  0  0  0  0  0  0  0  0  0
    2.0127  -10.6653   10.8373 C   0  0  0  0  0  0  0  0  0  0  0  0
    2.3714  -11.9233   10.6283 C   0  0  0  0  0  0  0  0  0  0  0  0
    1.2371  -13.1577   11.2905 C   0  0  0  0  0  0  0  0  0  0  0  0
    0.0301  -13.3470   11.8699 C   0  0  0  0  0  0  0  0  0  0  0  0
   -0.8734  -14.8401   11.3584 C   0  0  0  0  0  0  0  0  0  0  0  0
   -2.4003  -15.4758   10.6877 C   0  0  0  0  0  0  0  0  0  0  0  0
   -2.5351  -16.8986   10.0523 C   0  0  0  0  0  0  0  0  0  0  0  0
   -1.3909  -17.8668   10.2521 C   0  0  0  0  0  0  0  0  0  0  0  0
   -0.0471  -17.1736   10.3324 C   0  0  0  0  0  0  0  0  0  0  0  0
    0.1221  -15.9287   11.0727 N   0  0  0  0  0  0  0  0  0  0  0  0
    3.5429  -12.1285    9.6198 C   0  0  0  0  0  0  0  0  0  0  0  0
    4.9083  -11.4988    9.9906 C   0  0  0  0  0  0  0  0  0  0  0  0
    4.8981  -10.0068   10.3304 C   0  0  0  0  0  0  0  0  0  0  0  0
    3.8297   -9.2314    9.5808 C   0  0  0  0  0  0  0  0  0  0  0  0
    2.3944   -9.4247   10.0909 C   0  0  0  0  0  0  0  0  0  0  0  0
   -0.8511  -11.5563   12.6669 H   0  0  0  0  0  0  0  0  0  0  0  0
    0.5409   -9.9887   12.0777 H   0  0  0  0  0  0  0  0  0  0  0  0
    1.4623  -14.2256   11.2738 H   0  0  0  0  0  0  0  0  0  0  0  0
   -1.0819  -14.1418   10.5976 H   0  0  0  0  0  0  0  0  0  0  0  0
   -2.6876  -14.8936    9.8162 H   0  0  0  0  0  0  0  0  0  0  0  0
   -3.2508  -15.3041   11.3567 H   0  0  0  0  0  0  0  0  0  0  0  0
   -3.4729  -17.3591   10.3904 H   0  0  0  0  0  0  0  0  0  0  0  0
   -2.6795  -16.7765    8.9693 H   0  0  0  0  0  0  0  0  0  0  0  0
   -1.5413  -18.5042   11.1297 H   0  0  0  0  0  0  0  0  0  0  0  0
   -1.3774  -18.5756    9.4135 H   0  0  0  0  0  0  0  0  0  0  0  0
    0.3462  -17.0350    9.3193 H   0  0  0  0  0  0  0  0  0  0  0  0
    0.6609  -17.8985   10.7581 H   0  0  0  0  0  0  0  0  0  0  0  0
    0.6586  -16.1330   11.9108 H   0  0  0  0  0  0  0  0  0  0  0  0
    3.2140  -11.6947    8.6640 H   0  0  0  0  0  0  0  0  0  0  0  0
    3.6952  -13.1757    9.3392 H   0  0  0  0  0  0  0  0  0  0  0  0
    5.3856  -12.0549   10.8032 H   0  0  0  0  0  0  0  0  0  0  0  0
    5.5651  -11.6406    9.1215 H   0  0  0  0  0  0  0  0  0  0  0  0
    4.7855   -9.8469   11.4073 H   0  0  0  0  0  0  0  0  0  0  0  0
    5.8838   -9.5955   10.0781 H   0  0  0  0  0  0  0  0  0  0  0  0
    4.0656   -8.1604    9.6331 H   0  0  0  0  0  0  0  0  0  0  0  0
    3.8781   -9.4809    8.5129 H   0  0  0  0  0  0  0  0  0  0  0  0
    2.1154   -8.5205   10.6345 H   0  0  0  0  0  0  0  0  0  0  0  0
    1.7434   -9.3823    9.2051 H   0  0  0  0  0  0  0  0  0  0  0  0
  1  2  2  0
  2  3  1  0
  3  4  2  0
  4  5  1  0
  5  6  2  0
  6  7  1  0
  7  8  1  0
  8  9  1  0
  9 10  1  0
 10 11  1  0
 11 12  1  0
  4 13  1  0
 13 14  1  0
 14 15  1  0
 15 16  1  0
 16 17  1  0
  6  1  1  0
 12  7  1  0
 17  3  1  0
  1 18  1  0
  2 19  1  0
  5 20  1  0
  7 21  1  0
  8 22  1  0
  8 23  1  0
  9 24  1  0
  9 25  1  0
 10 26  1  0
 10 27  1  0
 11 28  1  0
 11 29  1  0
 12 30  1  0
 13 31  1  0
 13 32  1  0
 14 33  1  0
 14 34  1  0
 15 35  1  0
 15 36  1  0
 16 37  1  0
 16 38  1  0
 17 39  1  0
 17 40  1  0
M  END
>  <Energy>  (1141) 
298.28528269415153

>  <compound_id>  (1141) 
49715

>  <target_id>  (1141) 
1

>  <reference_id>  (1141) 
9

>  <inspiration_ids>  (1141) 
[9, 20]

>  <energy_score>  (1141) 
235.50493719199005

>  <distance_score>  (1141) 
15.206813977129729

>  <path>  (1141) 
/opt/xchem-fragalysis-2/maxwin/BulkDock/SCRATCH/511022/C49715-P9/C49715-P9.minimised.mol

>  <scratch_subdir>  (1141) 
/opt/xchem-fragalysis-2/maxwin/BulkDock/SCRATCH/511022/C49715-P9

>  <fragmenstein_runtime>  (1141) 
12.868073225021362

>  <fragmenstein_outcome>  (1141) 
too moved

>  <fragmenstein_mode>  (1141) 
expansion

>  <fragmenstein_error>  (1141) 


$$$$
C49715-P20
     RDKit          3D

 40 42  0  0  0  0  0  0  0  0999 V2000
    2.1320  -13.9815   18.0044 C   0  0  0  0  0  0  0  0  0  0  0  0
    3.3981  -12.6986   17.9717 C   0  0  0  0  0  0  0  0  0  0  0  0
    3.8211  -11.6052   16.6957 C   0  0  0  0  0  0  0  0  0  0  0  0
    3.5839  -12.0623   15.4932 C   0  0  0  0  0  0  0  0  0  0  0  0
    1.8557  -12.8173   15.5720 C   0  0  0  0  0  0  0  0  0  0  0  0
    0.9772  -13.8200   16.9244 C   0  0  0  0  0  0  0  0  0  0  0  0
   -1.0114  -13.6569   17.4102 C   0  0  0  0  0  0  0  0  0  0  0  0
   -2.0614  -14.4738   18.6954 C   0  0  0  0  0  0  0  0  0  0  0  0
   -3.4613  -15.1288   18.6816 C   0  0  0  0  0  0  0  0  0  0  0  0
   -4.2717  -14.5983   17.5663 C   0  0  0  0  0  0  0  0  0  0  0  0
   -3.3830  -14.8085   16.3828 C   0  0  0  0  0  0  0  0  0  0  0  0
   -1.9843  -14.3211   16.4352 N   0  0  0  0  0  0  0  0  0  0  0  0
    5.1025  -12.2402   14.2693 C   0  0  0  0  0  0  0  0  0  0  0  0
    5.9048  -11.7484   12.9664 C   0  0  0  0  0  0  0  0  0  0  0  0
    6.1413  -10.3139   13.0839 C   0  0  0  0  0  0  0  0  0  0  0  0
    4.8822   -9.8940   13.7769 C   0  0  0  0  0  0  0  0  0  0  0  0
    3.9238  -10.7870   15.1795 C   0  0  0  0  0  0  0  0  0  0  0  0
    2.3203  -14.7935   18.6955 H   0  0  0  0  0  0  0  0  0  0  0  0
    4.0912  -12.8124   18.8259 H   0  0  0  0  0  0  0  0  0  0  0  0
    1.4255  -12.7025   14.5342 H   0  0  0  0  0  0  0  0  0  0  0  0
   -1.1998  -12.6154   17.6858 H   0  0  0  0  0  0  0  0  0  0  0  0
   -2.3373  -13.6151   19.3376 H   0  0  0  0  0  0  0  0  0  0  0  0
   -1.4922  -15.2388   19.2156 H   0  0  0  0  0  0  0  0  0  0  0  0
   -3.9655  -14.9336   19.6379 H   0  0  0  0  0  0  0  0  0  0  0  0
   -3.3892  -16.2196   18.6390 H   0  0  0  0  0  0  0  0  0  0  0  0
   -5.2118  -15.1513   17.4628 H   0  0  0  0  0  0  0  0  0  0  0  0
   -4.5334  -13.5589   17.7613 H   0  0  0  0  0  0  0  0  0  0  0  0
   -3.8562  -14.5183   15.4575 H   0  0  0  0  0  0  0  0  0  0  0  0
   -3.5022  -15.8629   16.1608 H   0  0  0  0  0  0  0  0  0  0  0  0
   -1.5194  -14.4375   15.5593 H   0  0  0  0  0  0  0  0  0  0  0  0
    4.7615  -13.1315   14.0702 H   0  0  0  0  0  0  0  0  0  0  0  0
    5.8823  -12.9575   14.4697 H   0  0  0  0  0  0  0  0  0  0  0  0
    5.4868  -11.9986   11.9857 H   0  0  0  0  0  0  0  0  0  0  0  0
    6.8797  -12.2585   12.9062 H   0  0  0  0  0  0  0  0  0  0  0  0
    6.2079   -9.8514   12.0901 H   0  0  0  0  0  0  0  0  0  0  0  0
    7.0975  -10.0829   13.5514 H   0  0  0  0  0  0  0  0  0  0  0  0
    4.2201  -10.0865   12.9237 H   0  0  0  0  0  0  0  0  0  0  0  0
    4.8279   -8.7987   13.7543 H   0  0  0  0  0  0  0  0  0  0  0  0
    3.1933  -10.6264   14.3560 H   0  0  0  0  0  0  0  0  0  0  0  0
    3.3670  -10.1877   16.0534 H   0  0  0  0  0  0  0  0  0  0  0  0
  1  2  2  0
  2  3  1  0
  3  4  2  0
  4  5  1  0
  5  6  2  0
  6  7  1  0
  7  8  1  0
  8  9  1  0
  9 10  1  0
 10 11  1  0
 11 12  1  0
  4 13  1  0
 13 14  1  0
 14 15  1  0
 15 16  1  0
 16 17  1  0
  6  1  1  0
 12  7  1  0
 17  3  1  0
  1 18  1  0
  2 19  1  0
  5 20  1  0
  7 21  1  0
  8 22  1  0
  8 23  1  0
  9 24  1  0
  9 25  1  0
 10 26  1  0
 10 27  1  0
 11 28  1  0
 11 29  1  0
 12 30  1  0
 13 31  1  0
 13 32  1  0
 14 33  1  0
 14 34  1  0
 15 35  1  0
 15 36  1  0
 16 37  1  0
 16 38  1  0
 17 39  1  0
 17 40  1  0
M  END
>  <Energy>  (1142) 
1007.6944631905703

>  <compound_id>  (1142) 
49715

>  <target_id>  (1142) 
1

>  <reference_id>  (1142) 
20

>  <inspiration_ids>  (1142) 
[9, 20]

>  <energy_score>  (1142) 
944.9141176883986

>  <distance_score>  (1142) 
14.544768785794542

>  <path>  (1142) 
/opt/xchem-fragalysis-2/maxwin/BulkDock/SCRATCH/511022/C49715-P20/C49715-P20.minimised.mol

>  <scratch_subdir>  (1142) 
/opt/xchem-fragalysis-2/maxwin/BulkDock/SCRATCH/511022/C49715-P20

>  <fragmenstein_runtime>  (1142) 
10.755204200744629

>  <fragmenstein_outcome>  (1142) 
too moved

>  <fragmenstein_mode>  (1142) 
expansion

>  <fragmenstein_error>  (1142) 


$$$$
C49716-P9
     RDKit          3D

 38 40  0  0  0  0  0  0  0  0999 V2000
   -0.7452  -18.8871   10.3534 C   0  0  0  0  0  0  0  0  0  0  0  0
   -1.1323  -20.0107   11.1529 C   0  0  0  0  0  0  0  0  0  0  0  0
   -2.5359  -20.5887   11.3794 C   0  0  0  0  0  0  0  0  0  0  0  0
   -2.7377  -22.0539   10.9426 C   0  0  0  0  0  0  0  0  0  0  0  0
   -4.1524  -22.3476   10.4058 C   0  0  0  0  0  0  0  0  0  0  0  0
   -5.2271  -21.6781   11.1468 N   0  0  0  0  0  0  0  0  0  0  0  0
   -5.0062  -20.2346   11.2669 C   0  0  0  0  0  0  0  0  0  0  0  0
   -3.6547  -19.7300   10.7828 C   0  0  0  0  0  0  0  0  0  0  0  0
    0.0395  -20.3785   11.7976 C   0  0  0  0  0  0  0  0  0  0  0  0
    1.0766  -19.5006   11.4733 N   0  0  0  0  0  0  0  0  0  0  0  0
    0.5808  -18.5317   10.6323 C   0  0  0  0  0  0  0  0  0  0  0  0
    1.3097  -17.2578   10.2481 C   0  0  0  0  0  0  0  0  0  0  0  0
    2.7649  -17.3349    9.7927 C   0  0  0  0  0  0  0  0  0  0  0  0
    3.7983  -17.7361   10.8369 C   0  0  0  0  0  0  0  0  0  0  0  0
    3.6414  -19.1799   11.2859 C   0  0  0  0  0  0  0  0  0  0  0  0
    2.3948  -19.5430   12.1058 C   0  0  0  0  0  0  0  0  0  0  0  0
   -1.4023  -18.2983    9.7253 H   0  0  0  0  0  0  0  0  0  0  0  0
   -2.6718  -20.5628   12.4724 H   0  0  0  0  0  0  0  0  0  0  0  0
   -2.0115  -22.3271   10.1667 H   0  0  0  0  0  0  0  0  0  0  0  0
   -2.5275  -22.7071   11.7992 H   0  0  0  0  0  0  0  0  0  0  0  0
   -4.2087  -22.0557    9.3504 H   0  0  0  0  0  0  0  0  0  0  0  0
   -4.3271  -23.4294   10.4249 H   0  0  0  0  0  0  0  0  0  0  0  0
   -5.1779  -22.0662   12.1063 H   0  0  0  0  0  0  0  0  0  0  0  0
   -5.1031  -19.9438   12.3084 H   0  0  0  0  0  0  0  0  0  0  0  0
   -5.7990  -19.6857   10.7557 H   0  0  0  0  0  0  0  0  0  0  0  0
   -3.6101  -19.7416    9.6858 H   0  0  0  0  0  0  0  0  0  0  0  0
   -3.5469  -18.6824   11.0852 H   0  0  0  0  0  0  0  0  0  0  0  0
    0.2178  -21.1672   12.5178 H   0  0  0  0  0  0  0  0  0  0  0  0
    1.1844  -16.5229   11.0447 H   0  0  0  0  0  0  0  0  0  0  0  0
    0.7606  -16.8520    9.3925 H   0  0  0  0  0  0  0  0  0  0  0  0
    2.8333  -18.0259    8.9421 H   0  0  0  0  0  0  0  0  0  0  0  0
    3.0466  -16.3499    9.3999 H   0  0  0  0  0  0  0  0  0  0  0  0
    4.7900  -17.6349   10.3768 H   0  0  0  0  0  0  0  0  0  0  0  0
    3.8104  -17.0746   11.6990 H   0  0  0  0  0  0  0  0  0  0  0  0
    4.5186  -19.4352   11.8946 H   0  0  0  0  0  0  0  0  0  0  0  0
    3.6844  -19.8341   10.4053 H   0  0  0  0  0  0  0  0  0  0  0  0
    2.5270  -20.5930   12.4034 H   0  0  0  0  0  0  0  0  0  0  0  0
    2.3319  -18.9949   13.0438 H   0  0  0  0  0  0  0  0  0  0  0  0
  1  2  1  0
  2  3  1  0
  3  4  1  0
  4  5  1  0
  5  6  1  0
  6  7  1  0
  7  8  1  0
  2  9  2  0
  9 10  1  0
 10 11  1  0
 11 12  1  0
 12 13  1  0
 13 14  1  0
 14 15  1  0
 15 16  1  0
 11  1  2  0
  8  3  1  0
 16 10  1  0
  1 17  1  0
  3 18  1  0
  4 19  1  0
  4 20  1  0
  5 21  1  0
  5 22  1  0
  6 23  1  0
  7 24  1  0
  7 25  1  0
  8 26  1  0
  8 27  1  0
  9 28  1  0
 12 29  1  0
 12 30  1  0
 13 31  1  0
 13 32  1  0
 14 33  1  0
 14 34  1  0
 15 35  1  0
 15 36  1  0
 16 37  1  0
 16 38  1  0
M  END
>  <Energy>  (1143) 
21.414059442203069

>  <compound_id>  (1143) 
49716

>  <target_id>  (1143) 
1

>  <reference_id>  (1143) 
9

>  <inspiration_ids>  (1143) 
[9, 20]

>  <energy_score>  (1143) 
-5.225403217553861

>  <distance_score>  (1143) 
14.297073053568678

>  <path>  (1143) 
/opt/xchem-fragalysis-2/maxwin/BulkDock/SCRATCH/511022/C49716-P9/C49716-P9.minimised.mol

>  <scratch_subdir>  (1143) 
/opt/xchem-fragalysis-2/maxwin/BulkDock/SCRATCH/511022/C49716-P9

>  <fragmenstein_runtime>  (1143) 
13.399978876113892

>  <fragmenstein_outcome>  (1143) 
too moved

>  <fragmenstein_mode>  (1143) 
expansion

>  <fragmenstein_error>  (1143) 


$$$$
C49716-P20
     RDKit          3D

 38 40  0  0  0  0  0  0  0  0999 V2000
   -0.9151  -19.3761   10.5048 C   0  0  0  0  0  0  0  0  0  0  0  0
   -0.8736  -20.6831   11.2462 C   0  0  0  0  0  0  0  0  0  0  0  0
   -1.8188  -22.1110   11.2613 C   0  0  0  0  0  0  0  0  0  0  0  0
   -3.2068  -22.1690   10.6063 C   0  0  0  0  0  0  0  0  0  0  0  0
   -3.7037  -23.6467   10.4936 C   0  0  0  0  0  0  0  0  0  0  0  0
   -3.9819  -24.2893   11.7732 N   0  0  0  0  0  0  0  0  0  0  0  0
   -2.7026  -24.2832   12.5167 C   0  0  0  0  0  0  0  0  0  0  0  0
   -1.9323  -22.9048   12.6047 C   0  0  0  0  0  0  0  0  0  0  0  0
    0.3825  -20.5225   11.8860 C   0  0  0  0  0  0  0  0  0  0  0  0
    1.1508  -19.3396   11.4936 N   0  0  0  0  0  0  0  0  0  0  0  0
    0.3230  -18.5752   10.6797 C   0  0  0  0  0  0  0  0  0  0  0  0
    0.8692  -16.9989   10.3910 C   0  0  0  0  0  0  0  0  0  0  0  0
    2.3069  -16.6946    9.7711 C   0  0  0  0  0  0  0  0  0  0  0  0
    3.6244  -17.3350   10.2679 C   0  0  0  0  0  0  0  0  0  0  0  0
    3.6689  -18.0322   11.6289 C   0  0  0  0  0  0  0  0  0  0  0  0
    2.3117  -18.6297   12.2080 C   0  0  0  0  0  0  0  0  0  0  0  0
   -1.7526  -19.0408    9.9068 H   0  0  0  0  0  0  0  0  0  0  0  0
   -1.1715  -22.7330   10.6192 H   0  0  0  0  0  0  0  0  0  0  0  0
   -3.1558  -21.7272    9.6049 H   0  0  0  0  0  0  0  0  0  0  0  0
   -3.8362  -21.5361   11.2199 H   0  0  0  0  0  0  0  0  0  0  0  0
   -4.5462  -23.7520    9.8345 H   0  0  0  0  0  0  0  0  0  0  0  0
   -2.9275  -24.2249    9.9708 H   0  0  0  0  0  0  0  0  0  0  0  0
   -4.5555  -23.6057   12.2769 H   0  0  0  0  0  0  0  0  0  0  0  0
   -2.8428  -24.6653   13.5320 H   0  0  0  0  0  0  0  0  0  0  0  0
   -2.0318  -25.0062   12.0330 H   0  0  0  0  0  0  0  0  0  0  0  0
   -2.3307  -22.2469   13.3802 H   0  0  0  0  0  0  0  0  0  0  0  0
   -0.9137  -23.1331   12.9468 H   0  0  0  0  0  0  0  0  0  0  0  0
    0.8854  -21.1779   12.5831 H   0  0  0  0  0  0  0  0  0  0  0  0
    0.7066  -16.4338   11.3143 H   0  0  0  0  0  0  0  0  0  0  0  0
    0.1204  -16.6361    9.6830 H   0  0  0  0  0  0  0  0  0  0  0  0
    2.4426  -15.6251    9.6542 H   0  0  0  0  0  0  0  0  0  0  0  0
    2.2127  -17.0264    8.7247 H   0  0  0  0  0  0  0  0  0  0  0  0
    4.5066  -16.7162   10.0715 H   0  0  0  0  0  0  0  0  0  0  0  0
    3.7889  -18.1607    9.5551 H   0  0  0  0  0  0  0  0  0  0  0  0
    4.3515  -18.8873   11.5236 H   0  0  0  0  0  0  0  0  0  0  0  0
    4.1401  -17.4102   12.3956 H   0  0  0  0  0  0  0  0  0  0  0  0
    2.5362  -19.2914   13.0516 H   0  0  0  0  0  0  0  0  0  0  0  0
    1.7497  -17.7710   12.5254 H   0  0  0  0  0  0  0  0  0  0  0  0
  1  2  1  0
  2  3  1  0
  3  4  1  0
  4  5  1  0
  5  6  1  0
  6  7  1  0
  7  8  1  0
  2  9  2  0
  9 10  1  0
 10 11  1  0
 11 12  1  0
 12 13  1  0
 13 14  1  0
 14 15  1  0
 15 16  1  0
 11  1  2  0
  8  3  1  0
 16 10  1  0
  1 17  1  0
  3 18  1  0
  4 19  1  0
  4 20  1  0
  5 21  1  0
  5 22  1  0
  6 23  1  0
  7 24  1  0
  7 25  1  0
  8 26  1  0
  8 27  1  0
  9 28  1  0
 12 29  1  0
 12 30  1  0
 13 31  1  0
 13 32  1  0
 14 33  1  0
 14 34  1  0
 15 35  1  0
 15 36  1  0
 16 37  1  0
 16 38  1  0
M  END
>  <Energy>  (1144) 
99.445302102405336

>  <compound_id>  (1144) 
49716

>  <target_id>  (1144) 
1

>  <reference_id>  (1144) 
20

>  <inspiration_ids>  (1144) 
[9, 20]

>  <energy_score>  (1144) 
55.099312468411284

>  <distance_score>  (1144) 
14.009331154743094

>  <path>  (1144) 
/opt/xchem-fragalysis-2/maxwin/BulkDock/SCRATCH/511022/C49716-P20/C49716-P20.minimised.mol

>  <scratch_subdir>  (1144) 
/opt/xchem-fragalysis-2/maxwin/BulkDock/SCRATCH/511022/C49716-P20

>  <fragmenstein_runtime>  (1144) 
7.546185255050659

>  <fragmenstein_outcome>  (1144) 
too moved

>  <fragmenstein_mode>  (1144) 
expansion

>  <fragmenstein_error>  (1144) 


$$$$
C49718-P9
     RDKit          3D

 52 53  0  0  0  0  0  0  0  0999 V2000
   -1.4073  -13.6650   22.0993 C   0  0  0  0  0  0  0  0  0  0  0  0
   -2.1419  -13.9900   20.4813 C   0  0  0  0  0  0  0  0  0  0  0  0
   -2.3242  -12.5312   19.1114 C   0  0  0  0  0  0  0  0  0  0  0  0
   -2.1330  -10.6406   18.6279 C   0  0  0  0  0  0  0  0  0  0  0  0
   -1.9560  -10.5494   17.4690 O   0  0  0  0  0  0  0  0  0  0  0  0
   -2.3242   -9.2335   19.5362 N   0  0  0  0  0  0  0  0  0  0  0  0
   -2.4313   -7.7126   19.1010 C   0  0  0  0  0  0  0  0  0  0  0  0
   -1.3758   -6.8688   18.2331 C   0  0  0  0  0  0  0  0  0  0  0  0
   -0.7770   -5.6712   18.7079 C   0  0  0  0  0  0  0  0  0  0  0  0
    0.2614   -5.0171   18.0159 C   0  0  0  0  0  0  0  0  0  0  0  0
    0.6969   -5.5109   16.7967 C   0  0  0  0  0  0  0  0  0  0  0  0
    0.0726   -6.6395   16.2705 C   0  0  0  0  0  0  0  0  0  0  0  0
   -0.9382   -7.3154   16.9778 C   0  0  0  0  0  0  0  0  0  0  0  0
   -0.8095   -8.5584   20.2027 C   0  0  0  0  0  0  0  0  0  0  0  0
    0.3967   -9.1472   21.1558 C   0  0  0  0  0  0  0  0  0  0  0  0
   -1.1792   -7.4118   21.3024 C   0  0  0  0  0  0  0  0  0  0  0  0
   -3.0518  -15.9061   20.2486 C   0  0  0  0  0  0  0  0  0  0  0  0
   -3.9900  -16.9385   21.5257 C   0  0  0  0  0  0  0  0  0  0  0  0
   -5.3218  -17.7603   21.4029 C   0  0  0  0  0  0  0  0  0  0  0  0
   -5.3622  -18.7604   20.2999 C   0  0  0  0  0  0  0  0  0  0  0  0
   -5.0746  -18.1870   19.0176 N   0  0  0  0  0  0  0  0  0  0  0  0
   -4.1410  -16.9576   18.8729 C   0  0  0  0  0  0  0  0  0  0  0  0
   -0.6922  -14.4490   22.3828 H   0  0  0  0  0  0  0  0  0  0  0  0
   -0.9144  -12.7354   22.2823 H   0  0  0  0  0  0  0  0  0  0  0  0
   -2.1627  -13.5571   22.8938 H   0  0  0  0  0  0  0  0  0  0  0  0
   -2.7905  -13.2378   20.8666 H   0  0  0  0  0  0  0  0  0  0  0  0
   -3.4263  -12.3974   19.1193 H   0  0  0  0  0  0  0  0  0  0  0  0
   -2.1385  -13.0375   18.1446 H   0  0  0  0  0  0  0  0  0  0  0  0
   -3.2009   -7.8467   18.3197 H   0  0  0  0  0  0  0  0  0  0  0  0
   -3.0400   -7.1339   19.8037 H   0  0  0  0  0  0  0  0  0  0  0  0
   -1.1053   -5.2236   19.6415 H   0  0  0  0  0  0  0  0  0  0  0  0
    0.7069   -4.1172   18.4309 H   0  0  0  0  0  0  0  0  0  0  0  0
    1.4863   -5.0106   16.2441 H   0  0  0  0  0  0  0  0  0  0  0  0
    0.3842   -6.9975   15.2948 H   0  0  0  0  0  0  0  0  0  0  0  0
   -1.3877   -8.2026   16.5386 H   0  0  0  0  0  0  0  0  0  0  0  0
   -0.2046   -8.2297   19.3615 H   0  0  0  0  0  0  0  0  0  0  0  0
    0.4981  -10.2246   21.2278 H   0  0  0  0  0  0  0  0  0  0  0  0
    1.3469   -8.7148   20.8103 H   0  0  0  0  0  0  0  0  0  0  0  0
    0.3381   -8.8337   22.2100 H   0  0  0  0  0  0  0  0  0  0  0  0
   -0.2657   -6.9050   21.6443 H   0  0  0  0  0  0  0  0  0  0  0  0
   -1.6654   -7.8757   22.1698 H   0  0  0  0  0  0  0  0  0  0  0  0
   -1.8315   -6.5861   21.0366 H   0  0  0  0  0  0  0  0  0  0  0  0
   -2.0696  -16.3322   20.3436 H   0  0  0  0  0  0  0  0  0  0  0  0
   -4.3256  -16.2950   22.3450 H   0  0  0  0  0  0  0  0  0  0  0  0
   -3.2786  -17.7189   21.8391 H   0  0  0  0  0  0  0  0  0  0  0  0
   -6.2046  -17.1075   21.3706 H   0  0  0  0  0  0  0  0  0  0  0  0
   -5.4444  -18.3038   22.3515 H   0  0  0  0  0  0  0  0  0  0  0  0
   -6.3558  -19.2215   20.2590 H   0  0  0  0  0  0  0  0  0  0  0  0
   -4.6837  -19.5765   20.5552 H   0  0  0  0  0  0  0  0  0  0  0  0
   -4.6904  -18.8885   18.3921 H   0  0  0  0  0  0  0  0  0  0  0  0
   -3.5500  -17.0504   17.9192 H   0  0  0  0  0  0  0  0  0  0  0  0
   -4.9214  -16.4720   18.2928 H   0  0  0  0  0  0  0  0  0  0  0  0
  1  2  1  0
  2  3  1  0
  3  4  1  0
  4  5  2  0
  4  6  1  0
  6  7  1  0
  7  8  1  0
  8  9  2  0
  9 10  1  0
 10 11  2  0
 11 12  1  0
 12 13  2  0
  6 14  1  0
 14 15  1  0
 14 16  1  0
  2 17  1  0
 17 18  1  0
 18 19  1  0
 19 20  1  0
 20 21  1  0
 21 22  1  0
 13  8  1  0
 22 17  1  0
  1 23  1  0
  1 24  1  0
  1 25  1  0
  2 26  1  0
  3 27  1  0
  3 28  1  0
  7 29  1  0
  7 30  1  0
  9 31  1  0
 10 32  1  0
 11 33  1  0
 12 34  1  0
 13 35  1  0
 14 36  1  0
 15 37  1  0
 15 38  1  0
 15 39  1  0
 16 40  1  0
 16 41  1  0
 16 42  1  0
 17 43  1  0
 18 44  1  0
 18 45  1  0
 19 46  1  0
 19 47  1  0
 20 48  1  0
 20 49  1  0
 21 50  1  0
 22 51  1  0
 22 52  1  0
M  END
>  <Energy>  (1145) 
683.11118763983643

>  <compound_id>  (1145) 
49718

>  <target_id>  (1145) 
1

>  <reference_id>  (1145) 
9

>  <inspiration_ids>  (1145) 
[9, 20]

>  <energy_score>  (1145) 
603.3932776690349

>  <distance_score>  (1145) 
14.339517869108224

>  <path>  (1145) 
/opt/xchem-fragalysis-2/maxwin/BulkDock/SCRATCH/511022/C49718-P9/C49718-P9.minimised.mol

>  <scratch_subdir>  (1145) 
/opt/xchem-fragalysis-2/maxwin/BulkDock/SCRATCH/511022/C49718-P9

>  <fragmenstein_runtime>  (1145) 
25.748889923095703

>  <fragmenstein_outcome>  (1145) 
too moved

>  <fragmenstein_mode>  (1145) 
expansion

>  <fragmenstein_error>  (1145) 


$$$$
C49718-P20
     RDKit          3D

 52 53  0  0  0  0  0  0  0  0999 V2000
   -9.2308  -10.7856   11.3588 C   0  0  0  0  0  0  0  0  0  0  0  0
   -8.1485  -11.7077   11.9600 C   0  0  0  0  0  0  0  0  0  0  0  0
   -6.7164  -11.1305   11.5606 C   0  0  0  0  0  0  0  0  0  0  0  0
   -6.3148   -9.7361   12.2404 C   0  0  0  0  0  0  0  0  0  0  0  0
   -7.0901   -9.2992   13.0563 O   0  0  0  0  0  0  0  0  0  0  0  0
   -5.0000   -9.2337   11.8096 N   0  0  0  0  0  0  0  0  0  0  0  0
   -4.1329   -8.0383   12.3564 C   0  0  0  0  0  0  0  0  0  0  0  0
   -2.6600   -7.5603   12.1031 C   0  0  0  0  0  0  0  0  0  0  0  0
   -1.5700   -8.3581   11.7266 C   0  0  0  0  0  0  0  0  0  0  0  0
   -0.2543   -7.8456   11.6492 C   0  0  0  0  0  0  0  0  0  0  0  0
    0.0139   -6.5198   11.9718 C   0  0  0  0  0  0  0  0  0  0  0  0
   -1.0421   -5.7033   12.3588 C   0  0  0  0  0  0  0  0  0  0  0  0
   -2.3469   -6.2171   12.4300 C   0  0  0  0  0  0  0  0  0  0  0  0
   -5.1669   -8.2845   10.6126 C   0  0  0  0  0  0  0  0  0  0  0  0
   -4.0540   -8.2817    9.5460 C   0  0  0  0  0  0  0  0  0  0  0  0
   -5.9638   -6.9583   10.6947 C   0  0  0  0  0  0  0  0  0  0  0  0
   -8.5746  -13.2344   11.6134 C   0  0  0  0  0  0  0  0  0  0  0  0
   -9.7689  -13.7089   12.5041 C   0  0  0  0  0  0  0  0  0  0  0  0
   -9.6727  -15.1631   12.9863 C   0  0  0  0  0  0  0  0  0  0  0  0
   -9.2138  -16.0911   11.8773 C   0  0  0  0  0  0  0  0  0  0  0  0
   -7.9889  -15.6532   11.2236 N   0  0  0  0  0  0  0  0  0  0  0  0
   -7.4930  -14.3214   11.6107 C   0  0  0  0  0  0  0  0  0  0  0  0
   -9.2128  -10.8297   10.2645 H   0  0  0  0  0  0  0  0  0  0  0  0
   -9.0907   -9.7415   11.6508 H   0  0  0  0  0  0  0  0  0  0  0  0
  -10.2311  -11.0788   11.6928 H   0  0  0  0  0  0  0  0  0  0  0  0
   -8.2257  -11.6079   13.0469 H   0  0  0  0  0  0  0  0  0  0  0  0
   -6.6517  -11.0286   10.4737 H   0  0  0  0  0  0  0  0  0  0  0  0
   -5.9729  -11.8441   11.9051 H   0  0  0  0  0  0  0  0  0  0  0  0
   -3.9900   -8.4393   13.3763 H   0  0  0  0  0  0  0  0  0  0  0  0
   -4.7755   -7.1952   12.6524 H   0  0  0  0  0  0  0  0  0  0  0  0
   -1.7281   -9.4083   11.5033 H   0  0  0  0  0  0  0  0  0  0  0  0
    0.5552   -8.5082   11.3531 H   0  0  0  0  0  0  0  0  0  0  0  0
    1.0270   -6.1331   11.9228 H   0  0  0  0  0  0  0  0  0  0  0  0
   -0.8559   -4.6642   12.6181 H   0  0  0  0  0  0  0  0  0  0  0  0
   -3.1406   -5.5484   12.7619 H   0  0  0  0  0  0  0  0  0  0  0  0
   -5.9132   -8.8830   10.0612 H   0  0  0  0  0  0  0  0  0  0  0  0
   -4.4964   -8.1875    8.5464 H   0  0  0  0  0  0  0  0  0  0  0  0
   -3.4816   -9.2143    9.5629 H   0  0  0  0  0  0  0  0  0  0  0  0
   -3.3764   -7.4310    9.6479 H   0  0  0  0  0  0  0  0  0  0  0  0
   -6.4056   -6.7279    9.7177 H   0  0  0  0  0  0  0  0  0  0  0  0
   -5.3261   -6.1051   10.9485 H   0  0  0  0  0  0  0  0  0  0  0  0
   -6.7801   -7.0207   11.4208 H   0  0  0  0  0  0  0  0  0  0  0  0
   -8.9527  -13.2023   10.5797 H   0  0  0  0  0  0  0  0  0  0  0  0
   -9.8763  -13.0665   13.3859 H   0  0  0  0  0  0  0  0  0  0  0  0
  -10.6950  -13.5871   11.9273 H   0  0  0  0  0  0  0  0  0  0  0  0
   -8.9694  -15.2181   13.8274 H   0  0  0  0  0  0  0  0  0  0  0  0
  -10.6461  -15.4878   13.3716 H   0  0  0  0  0  0  0  0  0  0  0  0
   -9.0759  -17.1015   12.2728 H   0  0  0  0  0  0  0  0  0  0  0  0
   -9.9980  -16.1576   11.1149 H   0  0  0  0  0  0  0  0  0  0  0  0
   -7.2439  -16.3385   11.3531 H   0  0  0  0  0  0  0  0  0  0  0  0
   -6.9848  -14.3705   12.5756 H   0  0  0  0  0  0  0  0  0  0  0  0
   -6.7648  -14.0407   10.8530 H   0  0  0  0  0  0  0  0  0  0  0  0
  1  2  1  0
  2  3  1  0
  3  4  1  0
  4  5  2  0
  4  6  1  0
  6  7  1  0
  7  8  1  0
  8  9  2  0
  9 10  1  0
 10 11  2  0
 11 12  1  0
 12 13  2  0
  6 14  1  0
 14 15  1  0
 14 16  1  0
  2 17  1  0
 17 18  1  0
 18 19  1  0
 19 20  1  0
 20 21  1  0
 21 22  1  0
 13  8  1  0
 22 17  1  0
  1 23  1  0
  1 24  1  0
  1 25  1  0
  2 26  1  0
  3 27  1  0
  3 28  1  0
  7 29  1  0
  7 30  1  0
  9 31  1  0
 10 32  1  0
 11 33  1  0
 12 34  1  0
 13 35  1  0
 14 36  1  0
 15 37  1  0
 15 38  1  0
 15 39  1  0
 16 40  1  0
 16 41  1  0
 16 42  1  0
 17 43  1  0
 18 44  1  0
 18 45  1  0
 19 46  1  0
 19 47  1  0
 20 48  1  0
 20 49  1  0
 21 50  1  0
 22 51  1  0
 22 52  1  0
M  END
>  <Energy>  (1146) 
136.19251798471944

>  <compound_id>  (1146) 
49718

>  <target_id>  (1146) 
1

>  <reference_id>  (1146) 
20

>  <inspiration_ids>  (1146) 
[9, 20]

>  <energy_score>  (1146) 
56.47460801393697

>  <distance_score>  (1146) 
14.99069641032099

>  <path>  (1146) 
/opt/xchem-fragalysis-2/maxwin/BulkDock/SCRATCH/511022/C49718-P20/C49718-P20.minimised.mol

>  <scratch_subdir>  (1146) 
/opt/xchem-fragalysis-2/maxwin/BulkDock/SCRATCH/511022/C49718-P20

>  <fragmenstein_runtime>  (1146) 
26.24427819252014

>  <fragmenstein_outcome>  (1146) 
too moved

>  <fragmenstein_mode>  (1146) 
expansion

>  <fragmenstein_error>  (1146) 


$$$$
C46094-P52
     RDKit          2D

  0  0  0  0  0  0  0  0  0  0999 V2000
M  END
>  <compound_id>  (1147) 
46094

>  <target_id>  (1147) 
1

>  <reference_id>  (1147) 
52

>  <inspiration_ids>  (1147) 
[116, 52]

>  <energy_score>  (1147) 
nan

>  <distance_score>  (1147) 
nan

>  <path>  (1147) 
/opt/xchem-fragalysis-2/maxwin/BulkDock/SCRATCH/511022/C46094-P52/C46094-P52.minimised.mol

>  <scratch_subdir>  (1147) 
/opt/xchem-fragalysis-2/maxwin/BulkDock/SCRATCH/511022/C46094-P52

>  <fragmenstein_runtime>  (1147) 
0.33872103691101074

>  <fragmenstein_outcome>  (1147) 
too distant

>  <fragmenstein_mode>  (1147) 
expansion

>  <fragmenstein_error>  (1147) 
DistanceError: hit1

$$$$
C46096-P52
     RDKit          2D

  0  0  0  0  0  0  0  0  0  0999 V2000
M  END
>  <compound_id>  (1148) 
46096

>  <target_id>  (1148) 
1

>  <reference_id>  (1148) 
52

>  <inspiration_ids>  (1148) 
[116, 52]

>  <energy_score>  (1148) 
nan

>  <distance_score>  (1148) 
nan

>  <path>  (1148) 
/opt/xchem-fragalysis-2/maxwin/BulkDock/SCRATCH/511022/C46096-P52/C46096-P52.minimised.mol

>  <scratch_subdir>  (1148) 
/opt/xchem-fragalysis-2/maxwin/BulkDock/SCRATCH/511022/C46096-P52

>  <fragmenstein_runtime>  (1148) 
0.46024179458618164

>  <fragmenstein_outcome>  (1148) 
too distant

>  <fragmenstein_mode>  (1148) 
expansion

>  <fragmenstein_error>  (1148) 
DistanceError: hit1

$$$$
C46101-P52
     RDKit          2D

  0  0  0  0  0  0  0  0  0  0999 V2000
M  END
>  <compound_id>  (1149) 
46101

>  <target_id>  (1149) 
1

>  <reference_id>  (1149) 
52

>  <inspiration_ids>  (1149) 
[116, 52]

>  <energy_score>  (1149) 
nan

>  <distance_score>  (1149) 
nan

>  <path>  (1149) 
/opt/xchem-fragalysis-2/maxwin/BulkDock/SCRATCH/511022/C46101-P52/C46101-P52.minimised.mol

>  <scratch_subdir>  (1149) 
/opt/xchem-fragalysis-2/maxwin/BulkDock/SCRATCH/511022/C46101-P52

>  <fragmenstein_runtime>  (1149) 
0.32253098487854004

>  <fragmenstein_outcome>  (1149) 
too distant

>  <fragmenstein_mode>  (1149) 
expansion

>  <fragmenstein_error>  (1149) 
DistanceError: hit1

$$$$
C46102-P52
     RDKit          2D

  0  0  0  0  0  0  0  0  0  0999 V2000
M  END
>  <compound_id>  (1150) 
46102

>  <target_id>  (1150) 
1

>  <reference_id>  (1150) 
52

>  <inspiration_ids>  (1150) 
[116, 52]

>  <energy_score>  (1150) 
nan

>  <distance_score>  (1150) 
nan

>  <path>  (1150) 
/opt/xchem-fragalysis-2/maxwin/BulkDock/SCRATCH/511022/C46102-P52/C46102-P52.minimised.mol

>  <scratch_subdir>  (1150) 
/opt/xchem-fragalysis-2/maxwin/BulkDock/SCRATCH/511022/C46102-P52

>  <fragmenstein_runtime>  (1150) 
0.5209383964538574

>  <fragmenstein_outcome>  (1150) 
too distant

>  <fragmenstein_mode>  (1150) 
expansion

>  <fragmenstein_error>  (1150) 
DistanceError: hit0

$$$$
C29851-P116
     RDKit          3D

 41 43  0  0  0  0  0  0  0  0999 V2000
   -6.3859  -22.0715   27.4597 C   0  0  0  0  0  0  0  0  0  0  0  0
   -5.7980  -22.6395   26.1741 C   0  0  0  0  0  0  0  0  0  0  0  0
   -4.8016  -21.8419   25.2002 C   0  0  0  0  0  0  0  0  0  0  0  0
   -3.2904  -21.8901   25.3664 C   0  0  0  0  0  0  0  0  0  0  0  0
   -2.3772  -20.9403   25.8027 C   0  0  0  0  0  0  0  0  0  0  0  0
   -1.0864  -21.3392   25.6061 N   0  0  0  0  0  0  0  0  0  0  0  0
   -1.1928  -22.5039   25.0152 C   0  0  0  0  0  0  0  0  0  0  0  0
   -2.4985  -22.8753   24.8407 N   0  0  0  0  0  0  0  0  0  0  0  0
   -7.4702  -23.2853   25.8414 C   0  0  0  0  0  0  0  0  0  0  0  0
   -7.5840  -23.5904   24.6460 O   0  0  0  0  0  0  0  0  0  0  0  0
   -8.5818  -23.4576   27.1324 N   0  0  0  0  0  0  0  0  0  0  0  0
  -10.0957  -23.9542   27.1350 C   0  0  0  0  0  0  0  0  0  0  0  0
  -11.3720  -22.9319   27.5764 C   0  0  0  0  0  0  0  0  0  0  0  0
  -11.5311  -22.3612   28.9752 C   0  0  0  0  0  0  0  0  0  0  0  0
  -11.1202  -21.2910   29.6725 C   0  0  0  0  0  0  0  0  0  0  0  0
  -11.1422  -21.5178   31.0557 N   0  0  0  0  0  0  0  0  0  0  0  0
  -10.0461  -21.8058   32.2699 C   0  0  0  0  0  0  0  0  0  0  0  0
   -9.5858  -23.2061   32.6245 C   0  0  0  0  0  0  0  0  0  0  0  0
   -9.9440  -24.3208   31.9945 C   0  0  0  0  0  0  0  0  0  0  0  0
  -11.1459  -23.8393   31.7585 C   0  0  0  0  0  0  0  0  0  0  0  0
  -11.8163  -22.6299   31.0057 C   0  0  0  0  0  0  0  0  0  0  0  0
  -12.5045  -22.5472   29.8614 N   0  0  0  0  0  0  0  0  0  0  0  0
   -5.9003  -22.4614   28.3464 H   0  0  0  0  0  0  0  0  0  0  0  0
   -6.3019  -21.0150   27.3676 H   0  0  0  0  0  0  0  0  0  0  0  0
   -7.4354  -21.8856   27.5890 H   0  0  0  0  0  0  0  0  0  0  0  0
   -4.9959  -23.3780   26.3056 H   0  0  0  0  0  0  0  0  0  0  0  0
   -4.9680  -20.7782   25.3437 H   0  0  0  0  0  0  0  0  0  0  0  0
   -4.9947  -22.1432   24.1634 H   0  0  0  0  0  0  0  0  0  0  0  0
   -2.5854  -19.9669   26.2279 H   0  0  0  0  0  0  0  0  0  0  0  0
   -0.3715  -23.1227   24.6786 H   0  0  0  0  0  0  0  0  0  0  0  0
   -2.8161  -23.7005   24.3485 H   0  0  0  0  0  0  0  0  0  0  0  0
   -8.1488  -23.1880   27.9913 H   0  0  0  0  0  0  0  0  0  0  0  0
  -10.1408  -24.7545   27.8714 H   0  0  0  0  0  0  0  0  0  0  0  0
  -10.3075  -24.3724   26.1456 H   0  0  0  0  0  0  0  0  0  0  0  0
  -11.4865  -22.1024   26.8810 H   0  0  0  0  0  0  0  0  0  0  0  0
  -12.2576  -23.5506   27.3882 H   0  0  0  0  0  0  0  0  0  0  0  0
  -10.6422  -20.4777   29.3090 H   0  0  0  0  0  0  0  0  0  0  0  0
   -9.8826  -20.9533   32.9272 H   0  0  0  0  0  0  0  0  0  0  0  0
   -8.8096  -23.4524   33.3336 H   0  0  0  0  0  0  0  0  0  0  0  0
   -9.6154  -25.1886   32.5463 H   0  0  0  0  0  0  0  0  0  0  0  0
  -11.4663  -24.2309   32.6533 H   0  0  0  0  0  0  0  0  0  0  0  0
  1  2  1  0
  2  3  1  0
  3  4  1  0
  4  5  2  0
  5  6  1  0
  6  7  2  0
  7  8  1  0
  2  9  1  0
  9 10  2  0
  9 11  1  0
 11 12  1  0
 12 13  1  0
 13 14  1  0
 14 15  2  0
 15 16  1  0
 16 17  1  0
 17 18  2  0
 18 19  1  0
 19 20  2  0
 20 21  1  0
 21 22  2  0
  8  4  1  0
 22 14  1  0
 21 16  1  0
  1 23  1  0
  1 24  1  0
  1 25  1  0
  2 26  1  0
  3 27  1  0
  3 28  1  0
  5 29  1  0
  7 30  1  0
  8 31  1  0
 11 32  1  0
 12 33  1  0
 12 34  1  0
 13 35  1  0
 13 36  1  0
 15 37  1  0
 17 38  1  0
 18 39  1  0
 19 40  1  0
 20 41  1  0
M  END
>  <Energy>  (1151) 
427.19443044016191

>  <compound_id>  (1151) 
29851

>  <target_id>  (1151) 
1

>  <reference_id>  (1151) 
116

>  <inspiration_ids>  (1151) 
[116, 52]

>  <energy_score>  (1151) 
373.1945517019723

>  <distance_score>  (1151) 
5.468581803023224

>  <path>  (1151) 
/opt/xchem-fragalysis-2/maxwin/BulkDock/SCRATCH/511022/C29851-P116/C29851-P116.minimised.mol

>  <scratch_subdir>  (1151) 
/opt/xchem-fragalysis-2/maxwin/BulkDock/SCRATCH/511022/C29851-P116

>  <fragmenstein_runtime>  (1151) 
29.85096025466919

>  <fragmenstein_outcome>  (1151) 
too moved

>  <fragmenstein_mode>  (1151) 
expansion

>  <fragmenstein_error>  (1151) 


$$$$
C29851-P52
     RDKit          3D

 41 43  0  0  0  0  0  0  0  0999 V2000
   -9.8048  -20.9181   22.8223 C   0  0  0  0  0  0  0  0  0  0  0  0
  -10.4468  -19.4514   23.6475 C   0  0  0  0  0  0  0  0  0  0  0  0
  -10.2545  -17.2532   23.7520 C   0  0  0  0  0  0  0  0  0  0  0  0
   -9.7458  -16.0123   25.1578 C   0  0  0  0  0  0  0  0  0  0  0  0
   -9.3142  -16.1663   26.4554 C   0  0  0  0  0  0  0  0  0  0  0  0
   -8.5803  -15.1594   27.0042 N   0  0  0  0  0  0  0  0  0  0  0  0
   -8.8241  -14.1980   26.1961 C   0  0  0  0  0  0  0  0  0  0  0  0
   -8.8940  -14.8862   25.0409 N   0  0  0  0  0  0  0  0  0  0  0  0
  -11.7212  -20.6633   24.4232 C   0  0  0  0  0  0  0  0  0  0  0  0
  -12.4545  -21.1169   23.5770 O   0  0  0  0  0  0  0  0  0  0  0  0
  -11.6053  -20.9928   25.8899 N   0  0  0  0  0  0  0  0  0  0  0  0
  -12.2560  -22.0094   26.6861 C   0  0  0  0  0  0  0  0  0  0  0  0
  -11.3134  -23.0754   27.2820 C   0  0  0  0  0  0  0  0  0  0  0  0
  -11.1909  -23.0658   28.7854 C   0  0  0  0  0  0  0  0  0  0  0  0
  -11.6471  -22.1712   29.7358 C   0  0  0  0  0  0  0  0  0  0  0  0
  -11.2501  -22.6594   30.9564 N   0  0  0  0  0  0  0  0  0  0  0  0
  -11.4575  -22.1435   32.2322 C   0  0  0  0  0  0  0  0  0  0  0  0
  -10.8946  -22.7615   33.2837 C   0  0  0  0  0  0  0  0  0  0  0  0
  -10.0647  -23.9330   33.0480 C   0  0  0  0  0  0  0  0  0  0  0  0
   -9.9049  -24.4480   31.8132 C   0  0  0  0  0  0  0  0  0  0  0  0
  -10.5209  -23.8122   30.6977 C   0  0  0  0  0  0  0  0  0  0  0  0
  -10.5114  -24.0937   29.4101 N   0  0  0  0  0  0  0  0  0  0  0  0
   -8.7730  -21.1982   22.9216 H   0  0  0  0  0  0  0  0  0  0  0  0
  -10.1408  -21.0384   21.7814 H   0  0  0  0  0  0  0  0  0  0  0  0
  -10.2661  -21.8125   23.2604 H   0  0  0  0  0  0  0  0  0  0  0  0
  -10.9911  -19.6478   22.7019 H   0  0  0  0  0  0  0  0  0  0  0  0
  -10.9278  -16.5552   23.2330 H   0  0  0  0  0  0  0  0  0  0  0  0
  -11.1993  -17.0194   24.3998 H   0  0  0  0  0  0  0  0  0  0  0  0
   -9.2604  -17.0619   27.0381 H   0  0  0  0  0  0  0  0  0  0  0  0
   -8.5925  -13.1566   26.3742 H   0  0  0  0  0  0  0  0  0  0  0  0
   -8.1706  -14.7586   24.3806 H   0  0  0  0  0  0  0  0  0  0  0  0
  -10.9485  -20.3674   26.3178 H   0  0  0  0  0  0  0  0  0  0  0  0
  -12.9599  -22.5238   26.0267 H   0  0  0  0  0  0  0  0  0  0  0  0
  -12.6922  -21.5153   27.5317 H   0  0  0  0  0  0  0  0  0  0  0  0
  -10.3136  -23.0243   26.8455 H   0  0  0  0  0  0  0  0  0  0  0  0
  -11.7143  -24.0623   27.0136 H   0  0  0  0  0  0  0  0  0  0  0  0
  -12.1778  -21.2360   29.6698 H   0  0  0  0  0  0  0  0  0  0  0  0
  -12.0782  -21.2628   32.3298 H   0  0  0  0  0  0  0  0  0  0  0  0
  -11.0469  -22.4134   34.3008 H   0  0  0  0  0  0  0  0  0  0  0  0
   -9.5687  -24.3860   33.9013 H   0  0  0  0  0  0  0  0  0  0  0  0
   -9.2847  -25.3197   31.6434 H   0  0  0  0  0  0  0  0  0  0  0  0
  1  2  1  0
  2  3  1  0
  3  4  1  0
  4  5  2  0
  5  6  1  0
  6  7  2  0
  7  8  1  0
  2  9  1  0
  9 10  2  0
  9 11  1  0
 11 12  1  0
 12 13  1  0
 13 14  1  0
 14 15  2  0
 15 16  1  0
 16 17  1  0
 17 18  2  0
 18 19  1  0
 19 20  2  0
 20 21  1  0
 21 22  2  0
  8  4  1  0
 22 14  1  0
 21 16  1  0
  1 23  1  0
  1 24  1  0
  1 25  1  0
  2 26  1  0
  3 27  1  0
  3 28  1  0
  5 29  1  0
  7 30  1  0
  8 31  1  0
 11 32  1  0
 12 33  1  0
 12 34  1  0
 13 35  1  0
 13 36  1  0
 15 37  1  0
 17 38  1  0
 18 39  1  0
 19 40  1  0
 20 41  1  0
M  END
>  <Energy>  (1152) 
447.55054450152204

>  <compound_id>  (1152) 
29851

>  <target_id>  (1152) 
1

>  <reference_id>  (1152) 
52

>  <inspiration_ids>  (1152) 
[116, 52]

>  <energy_score>  (1152) 
393.55066576332376

>  <distance_score>  (1152) 
5.061648535759443

>  <path>  (1152) 
/opt/xchem-fragalysis-2/maxwin/BulkDock/SCRATCH/511022/C29851-P52/C29851-P52.minimised.mol

>  <scratch_subdir>  (1152) 
/opt/xchem-fragalysis-2/maxwin/BulkDock/SCRATCH/511022/C29851-P52

>  <fragmenstein_runtime>  (1152) 
24.740564346313477

>  <fragmenstein_outcome>  (1152) 
too moved

>  <fragmenstein_mode>  (1152) 
expansion

>  <fragmenstein_error>  (1152) 


$$$$
C46104-P52
     RDKit          2D

  0  0  0  0  0  0  0  0  0  0999 V2000
M  END
>  <compound_id>  (1153) 
46104

>  <target_id>  (1153) 
1

>  <reference_id>  (1153) 
52

>  <inspiration_ids>  (1153) 
[116, 52]

>  <energy_score>  (1153) 
nan

>  <distance_score>  (1153) 
nan

>  <path>  (1153) 
/opt/xchem-fragalysis-2/maxwin/BulkDock/SCRATCH/511022/C46104-P52/C46104-P52.minimised.mol

>  <scratch_subdir>  (1153) 
/opt/xchem-fragalysis-2/maxwin/BulkDock/SCRATCH/511022/C46104-P52

>  <fragmenstein_runtime>  (1153) 
0.2609593868255615

>  <fragmenstein_outcome>  (1153) 
too distant

>  <fragmenstein_mode>  (1153) 
expansion

>  <fragmenstein_error>  (1153) 
DistanceError: hit1

$$$$
C46105-P116
     RDKit          3D

 44 46  0  0  0  0  0  0  0  0999 V2000
   -2.0053  -18.2634   26.0596 C   0  0  0  0  0  0  0  0  0  0  0  0
   -2.2943  -17.5244   27.1884 C   0  0  0  0  0  0  0  0  0  0  0  0
   -1.2737  -16.7613   27.4569 N   0  0  0  0  0  0  0  0  0  0  0  0
   -1.6731  -15.6514   27.9884 C   0  0  0  0  0  0  0  0  0  0  0  0
   -2.9693  -15.8866   28.1963 C   0  0  0  0  0  0  0  0  0  0  0  0
   -3.5826  -17.2471   27.7115 N   0  0  0  0  0  0  0  0  0  0  0  0
   -5.2065  -18.2818   27.6699 C   0  0  0  0  0  0  0  0  0  0  0  0
   -6.0043  -19.8649   26.7497 C   0  0  0  0  0  0  0  0  0  0  0  0
   -6.1844  -21.7436   27.3616 C   0  0  0  0  0  0  0  0  0  0  0  0
   -7.4271  -22.6781   26.9005 C   0  0  0  0  0  0  0  0  0  0  0  0
   -7.3084  -23.0606   25.7825 O   0  0  0  0  0  0  0  0  0  0  0  0
   -8.4365  -22.8812   27.8193 N   0  0  0  0  0  0  0  0  0  0  0  0
   -9.8431  -23.6033   27.6862 C   0  0  0  0  0  0  0  0  0  0  0  0
  -11.1853  -22.7264   27.7859 C   0  0  0  0  0  0  0  0  0  0  0  0
  -11.5541  -22.0320   29.0452 C   0  0  0  0  0  0  0  0  0  0  0  0
  -12.5666  -22.2839   29.9051 C   0  0  0  0  0  0  0  0  0  0  0  0
  -11.7767  -22.5869   31.0116 N   0  0  0  0  0  0  0  0  0  0  0  0
  -11.0935  -23.9233   31.6429 C   0  0  0  0  0  0  0  0  0  0  0  0
   -9.9243  -24.3794   32.0657 C   0  0  0  0  0  0  0  0  0  0  0  0
   -9.4941  -23.2757   32.6622 C   0  0  0  0  0  0  0  0  0  0  0  0
   -9.9884  -21.8662   32.3053 C   0  0  0  0  0  0  0  0  0  0  0  0
  -11.0594  -21.4667   31.0070 C   0  0  0  0  0  0  0  0  0  0  0  0
  -10.9529  -21.0517   29.7489 N   0  0  0  0  0  0  0  0  0  0  0  0
   -2.3979  -19.2432   26.1601 H   0  0  0  0  0  0  0  0  0  0  0  0
   -0.9636  -18.2288   25.7821 H   0  0  0  0  0  0  0  0  0  0  0  0
   -2.4214  -17.5381   25.3945 H   0  0  0  0  0  0  0  0  0  0  0  0
   -1.0394  -14.8560   28.3563 H   0  0  0  0  0  0  0  0  0  0  0  0
   -3.3263  -15.3277   29.0260 H   0  0  0  0  0  0  0  0  0  0  0  0
   -6.0109  -17.9506   28.3972 H   0  0  0  0  0  0  0  0  0  0  0  0
   -4.3025  -18.8075   27.9082 H   0  0  0  0  0  0  0  0  0  0  0  0
   -5.4782  -19.9699   25.7739 H   0  0  0  0  0  0  0  0  0  0  0  0
   -7.0414  -19.7727   26.6563 H   0  0  0  0  0  0  0  0  0  0  0  0
   -5.7843  -22.1617   28.2786 H   0  0  0  0  0  0  0  0  0  0  0  0
   -5.4382  -22.1354   26.6962 H   0  0  0  0  0  0  0  0  0  0  0  0
   -8.1702  -22.4924   28.6606 H   0  0  0  0  0  0  0  0  0  0  0  0
   -9.8467  -24.1073   26.7124 H   0  0  0  0  0  0  0  0  0  0  0  0
   -9.9095  -24.4195   28.3948 H   0  0  0  0  0  0  0  0  0  0  0  0
  -11.3184  -21.9916   26.9971 H   0  0  0  0  0  0  0  0  0  0  0  0
  -11.9847  -23.4474   27.5666 H   0  0  0  0  0  0  0  0  0  0  0  0
  -13.3720  -21.6065   30.1360 H   0  0  0  0  0  0  0  0  0  0  0  0
  -11.4734  -24.2175   32.5550 H   0  0  0  0  0  0  0  0  0  0  0  0
   -9.6544  -25.2737   32.5985 H   0  0  0  0  0  0  0  0  0  0  0  0
   -8.6633  -23.5175   33.3198 H   0  0  0  0  0  0  0  0  0  0  0  0
  -10.8413  -22.4060   32.6068 H   0  0  0  0  0  0  0  0  0  0  0  0
  1  2  1  0
  2  3  2  0
  3  4  1  0
  4  5  2  0
  5  6  1  0
  6  7  1  0
  7  8  1  0
  8  9  1  0
  9 10  1  0
 10 11  2  0
 10 12  1  0
 12 13  1  0
 13 14  1  0
 14 15  1  0
 15 16  2  0
 16 17  1  0
 17 18  1  0
 18 19  2  0
 19 20  1  0
 20 21  2  0
 21 22  1  0
 22 23  2  0
  6  2  1  0
 23 15  1  0
 22 17  1  0
  1 24  1  0
  1 25  1  0
  1 26  1  0
  4 27  1  0
  5 28  1  0
  7 29  1  0
  7 30  1  0
  8 31  1  0
  8 32  1  0
  9 33  1  0
  9 34  1  0
 12 35  1  0
 13 36  1  0
 13 37  1  0
 14 38  1  0
 14 39  1  0
 16 40  1  0
 18 41  1  0
 19 42  1  0
 20 43  1  0
 21 44  1  0
M  END
>  <Energy>  (1154) 
742.50099941372298

>  <compound_id>  (1154) 
46105

>  <target_id>  (1154) 
1

>  <reference_id>  (1154) 
116

>  <inspiration_ids>  (1154) 
[116, 52]

>  <energy_score>  (1154) 
707.410765668195

>  <distance_score>  (1154) 
3.3854354071000707

>  <path>  (1154) 
/opt/xchem-fragalysis-2/maxwin/BulkDock/SCRATCH/511022/C46105-P116/C46105-P116.minimised.mol

>  <scratch_subdir>  (1154) 
/opt/xchem-fragalysis-2/maxwin/BulkDock/SCRATCH/511022/C46105-P116

>  <fragmenstein_runtime>  (1154) 
23.968345403671265

>  <fragmenstein_outcome>  (1154) 
too moved

>  <fragmenstein_mode>  (1154) 
expansion

>  <fragmenstein_error>  (1154) 


$$$$
C46105-P52
     RDKit          3D

 44 46  0  0  0  0  0  0  0  0999 V2000
   -4.0691  -14.8552   27.7333 C   0  0  0  0  0  0  0  0  0  0  0  0
   -6.0600  -14.5096   28.2939 C   0  0  0  0  0  0  0  0  0  0  0  0
   -6.1838  -13.6717   29.2613 N   0  0  0  0  0  0  0  0  0  0  0  0
   -5.5257  -14.6825   29.6145 C   0  0  0  0  0  0  0  0  0  0  0  0
   -5.9393  -15.8731   28.8861 C   0  0  0  0  0  0  0  0  0  0  0  0
   -7.2995  -15.6612   27.7701 N   0  0  0  0  0  0  0  0  0  0  0  0
   -8.6102  -16.9654   28.0603 C   0  0  0  0  0  0  0  0  0  0  0  0
  -10.6338  -17.2856   28.6701 C   0  0  0  0  0  0  0  0  0  0  0  0
  -10.9214  -19.2621   29.3804 C   0  0  0  0  0  0  0  0  0  0  0  0
  -11.2863  -20.7585   29.1057 C   0  0  0  0  0  0  0  0  0  0  0  0
  -12.2800  -21.1827   29.6131 O   0  0  0  0  0  0  0  0  0  0  0  0
  -10.3119  -21.3909   28.3615 N   0  0  0  0  0  0  0  0  0  0  0  0
  -10.1229  -22.7820   28.0328 C   0  0  0  0  0  0  0  0  0  0  0  0
  -11.3587  -23.4219   27.4041 C   0  0  0  0  0  0  0  0  0  0  0  0
  -11.9302  -24.5019   28.2448 C   0  0  0  0  0  0  0  0  0  0  0  0
  -13.0895  -25.2249   28.0579 C   0  0  0  0  0  0  0  0  0  0  0  0
  -13.1233  -26.1281   29.0859 N   0  0  0  0  0  0  0  0  0  0  0  0
  -14.0492  -27.1262   29.3675 C   0  0  0  0  0  0  0  0  0  0  0  0
  -13.8560  -27.9132   30.4400 C   0  0  0  0  0  0  0  0  0  0  0  0
  -12.6993  -27.6792   31.2904 C   0  0  0  0  0  0  0  0  0  0  0  0
  -11.8302  -26.6846   31.0274 C   0  0  0  0  0  0  0  0  0  0  0  0
  -12.0017  -25.8927   29.8648 C   0  0  0  0  0  0  0  0  0  0  0  0
  -11.2608  -24.9438   29.3591 N   0  0  0  0  0  0  0  0  0  0  0  0
   -4.0899  -15.4998   26.8340 H   0  0  0  0  0  0  0  0  0  0  0  0
   -3.3636  -14.0051   27.7463 H   0  0  0  0  0  0  0  0  0  0  0  0
   -3.2188  -15.5496   27.5696 H   0  0  0  0  0  0  0  0  0  0  0  0
   -4.4711  -14.4155   29.5567 H   0  0  0  0  0  0  0  0  0  0  0  0
   -5.4481  -16.4818   28.2078 H   0  0  0  0  0  0  0  0  0  0  0  0
   -8.8727  -16.7744   27.0070 H   0  0  0  0  0  0  0  0  0  0  0  0
   -8.1219  -17.9006   28.0739 H   0  0  0  0  0  0  0  0  0  0  0  0
  -11.1121  -16.9319   27.7566 H   0  0  0  0  0  0  0  0  0  0  0  0
  -11.4479  -16.7302   29.1065 H   0  0  0  0  0  0  0  0  0  0  0  0
  -10.4916  -19.3685   30.3957 H   0  0  0  0  0  0  0  0  0  0  0  0
  -12.0366  -19.1219   29.3611 H   0  0  0  0  0  0  0  0  0  0  0  0
   -9.6643  -20.7029   28.0283 H   0  0  0  0  0  0  0  0  0  0  0  0
   -9.7808  -23.2602   28.9539 H   0  0  0  0  0  0  0  0  0  0  0  0
   -9.3027  -22.8652   27.3312 H   0  0  0  0  0  0  0  0  0  0  0  0
  -11.0690  -23.8718   26.4453 H   0  0  0  0  0  0  0  0  0  0  0  0
  -12.1276  -22.6768   27.1740 H   0  0  0  0  0  0  0  0  0  0  0  0
  -13.8567  -25.1805   27.2989 H   0  0  0  0  0  0  0  0  0  0  0  0
  -14.8887  -27.2355   28.6930 H   0  0  0  0  0  0  0  0  0  0  0  0
  -14.5460  -28.7102   30.6986 H   0  0  0  0  0  0  0  0  0  0  0  0
  -12.5774  -28.3090   32.1666 H   0  0  0  0  0  0  0  0  0  0  0  0
  -10.9929  -26.4534   31.6774 H   0  0  0  0  0  0  0  0  0  0  0  0
  1  2  1  0
  2  3  2  0
  3  4  1  0
  4  5  2  0
  5  6  1  0
  6  7  1  0
  7  8  1  0
  8  9  1  0
  9 10  1  0
 10 11  2  0
 10 12  1  0
 12 13  1  0
 13 14  1  0
 14 15  1  0
 15 16  2  0
 16 17  1  0
 17 18  1  0
 18 19  2  0
 19 20  1  0
 20 21  2  0
 21 22  1  0
 22 23  2  0
  6  2  1  0
 23 15  1  0
 22 17  1  0
  1 24  1  0
  1 25  1  0
  1 26  1  0
  4 27  1  0
  5 28  1  0
  7 29  1  0
  7 30  1  0
  8 31  1  0
  8 32  1  0
  9 33  1  0
  9 34  1  0
 12 35  1  0
 13 36  1  0
 13 37  1  0
 14 38  1  0
 14 39  1  0
 16 40  1  0
 18 41  1  0
 19 42  1  0
 20 43  1  0
 21 44  1  0
M  END
>  <Energy>  (1155) 
871.77790407804389

>  <compound_id>  (1155) 
46105

>  <target_id>  (1155) 
1

>  <reference_id>  (1155) 
52

>  <inspiration_ids>  (1155) 
[116, 52]

>  <energy_score>  (1155) 
836.6876703325092

>  <distance_score>  (1155) 
4.963757783974447

>  <path>  (1155) 
/opt/xchem-fragalysis-2/maxwin/BulkDock/SCRATCH/511022/C46105-P52/C46105-P52.minimised.mol

>  <scratch_subdir>  (1155) 
/opt/xchem-fragalysis-2/maxwin/BulkDock/SCRATCH/511022/C46105-P52

>  <fragmenstein_runtime>  (1155) 
43.479543685913086

>  <fragmenstein_outcome>  (1155) 
too moved

>  <fragmenstein_mode>  (1155) 
expansion

>  <fragmenstein_error>  (1155) 


$$$$
C46107-P52
     RDKit          2D

  0  0  0  0  0  0  0  0  0  0999 V2000
M  END
>  <compound_id>  (1156) 
46107

>  <target_id>  (1156) 
1

>  <reference_id>  (1156) 
52

>  <inspiration_ids>  (1156) 
[116, 52]

>  <energy_score>  (1156) 
nan

>  <distance_score>  (1156) 
nan

>  <path>  (1156) 
/opt/xchem-fragalysis-2/maxwin/BulkDock/SCRATCH/511022/C46107-P52/C46107-P52.minimised.mol

>  <scratch_subdir>  (1156) 
/opt/xchem-fragalysis-2/maxwin/BulkDock/SCRATCH/511022/C46107-P52

>  <fragmenstein_runtime>  (1156) 
0.33321619033813477

>  <fragmenstein_outcome>  (1156) 
too distant

>  <fragmenstein_mode>  (1156) 
expansion

>  <fragmenstein_error>  (1156) 
DistanceError: hit1

$$$$
C46109-P52
     RDKit          2D

  0  0  0  0  0  0  0  0  0  0999 V2000
M  END
>  <compound_id>  (1157) 
46109

>  <target_id>  (1157) 
1

>  <reference_id>  (1157) 
52

>  <inspiration_ids>  (1157) 
[116, 52]

>  <energy_score>  (1157) 
nan

>  <distance_score>  (1157) 
nan

>  <path>  (1157) 
/opt/xchem-fragalysis-2/maxwin/BulkDock/SCRATCH/511022/C46109-P52/C46109-P52.minimised.mol

>  <scratch_subdir>  (1157) 
/opt/xchem-fragalysis-2/maxwin/BulkDock/SCRATCH/511022/C46109-P52

>  <fragmenstein_runtime>  (1157) 
0.3259577751159668

>  <fragmenstein_outcome>  (1157) 
too distant

>  <fragmenstein_mode>  (1157) 
expansion

>  <fragmenstein_error>  (1157) 
DistanceError: hit1

$$$$
C46110-P52
     RDKit          2D

  0  0  0  0  0  0  0  0  0  0999 V2000
M  END
>  <compound_id>  (1158) 
46110

>  <target_id>  (1158) 
1

>  <reference_id>  (1158) 
52

>  <inspiration_ids>  (1158) 
[116, 52]

>  <energy_score>  (1158) 
nan

>  <distance_score>  (1158) 
nan

>  <path>  (1158) 
/opt/xchem-fragalysis-2/maxwin/BulkDock/SCRATCH/511022/C46110-P52/C46110-P52.minimised.mol

>  <scratch_subdir>  (1158) 
/opt/xchem-fragalysis-2/maxwin/BulkDock/SCRATCH/511022/C46110-P52

>  <fragmenstein_runtime>  (1158) 
0.3253796100616455

>  <fragmenstein_outcome>  (1158) 
too distant

>  <fragmenstein_mode>  (1158) 
expansion

>  <fragmenstein_error>  (1158) 
DistanceError: hit1

$$$$
C46111-P116
     RDKit          3D

 38 40  0  0  0  0  0  0  0  0999 V2000
   -8.6219  -19.9306   28.2158 O   0  0  0  0  0  0  0  0  0  0  0  0
   -7.8274  -20.8118   27.6364 C   0  0  0  0  0  0  0  0  0  0  0  0
   -6.0834  -19.8385   26.9488 C   0  0  0  0  0  0  0  0  0  0  0  0
   -4.6005  -18.6732   27.7318 N   0  0  0  0  0  0  0  0  0  0  0  0
   -2.8816  -18.7986   27.1221 C   0  0  0  0  0  0  0  0  0  0  0  0
   -2.0777  -17.7919   26.9232 N   0  0  0  0  0  0  0  0  0  0  0  0
   -2.6455  -16.8130   27.5693 C   0  0  0  0  0  0  0  0  0  0  0  0
   -1.9855  -15.4749   27.8211 C   0  0  0  0  0  0  0  0  0  0  0  0
   -2.1154  -14.4680   27.1307 O   0  0  0  0  0  0  0  0  0  0  0  0
   -1.1768  -15.3321   28.8974 O   0  0  0  0  0  0  0  0  0  0  0  0
   -3.9819  -17.1932   27.9300 C   0  0  0  0  0  0  0  0  0  0  0  0
   -7.9965  -22.2994   27.4580 N   0  0  0  0  0  0  0  0  0  0  0  0
   -9.2894  -23.3180   27.8228 C   0  0  0  0  0  0  0  0  0  0  0  0
  -10.7745  -22.4605   28.3798 C   0  0  0  0  0  0  0  0  0  0  0  0
  -11.2402  -21.8093   29.8452 C   0  0  0  0  0  0  0  0  0  0  0  0
  -12.2042  -22.3317   30.5778 C   0  0  0  0  0  0  0  0  0  0  0  0
  -11.4378  -23.0365   31.6060 N   0  0  0  0  0  0  0  0  0  0  0  0
  -11.1049  -24.2413   32.0487 C   0  0  0  0  0  0  0  0  0  0  0  0
  -10.1809  -24.9606   32.6704 C   0  0  0  0  0  0  0  0  0  0  0  0
   -8.9252  -24.6671   32.5361 C   0  0  0  0  0  0  0  0  0  0  0  0
   -9.2890  -23.4372   32.8638 C   0  0  0  0  0  0  0  0  0  0  0  0
  -10.5450  -22.3200   32.2371 C   0  0  0  0  0  0  0  0  0  0  0  0
  -10.7107  -21.2727   31.0871 N   0  0  0  0  0  0  0  0  0  0  0  0
   -5.6089  -20.8925   26.7720 H   0  0  0  0  0  0  0  0  0  0  0  0
   -5.9858  -19.4973   25.9359 H   0  0  0  0  0  0  0  0  0  0  0  0
   -2.5742  -19.7439   26.8725 H   0  0  0  0  0  0  0  0  0  0  0  0
   -0.8045  -14.4404   28.7436 H   0  0  0  0  0  0  0  0  0  0  0  0
   -4.5317  -16.6392   28.6771 H   0  0  0  0  0  0  0  0  0  0  0  0
   -7.2376  -22.6420   26.8974 H   0  0  0  0  0  0  0  0  0  0  0  0
   -9.5894  -23.7916   26.8755 H   0  0  0  0  0  0  0  0  0  0  0  0
   -9.1265  -24.2297   28.3552 H   0  0  0  0  0  0  0  0  0  0  0  0
  -11.0482  -21.7186   27.6356 H   0  0  0  0  0  0  0  0  0  0  0  0
  -11.5224  -23.2479   28.2098 H   0  0  0  0  0  0  0  0  0  0  0  0
  -13.1010  -22.7573   30.2233 H   0  0  0  0  0  0  0  0  0  0  0  0
  -11.5380  -24.4120   32.9255 H   0  0  0  0  0  0  0  0  0  0  0  0
  -10.4373  -25.9000   33.1748 H   0  0  0  0  0  0  0  0  0  0  0  0
   -8.8500  -25.3451   31.6794 H   0  0  0  0  0  0  0  0  0  0  0  0
   -8.5091  -23.0777   33.6394 H   0  0  0  0  0  0  0  0  0  0  0  0
  1  2  2  0
  2  3  1  0
  3  4  1  0
  4  5  1  0
  5  6  2  0
  6  7  1  0
  7  8  1  0
  8  9  2  0
  8 10  1  0
  7 11  2  0
  2 12  1  0
 12 13  1  0
 13 14  1  0
 14 15  1  0
 15 16  2  0
 16 17  1  0
 17 18  1  0
 18 19  2  0
 19 20  1  0
 20 21  2  0
 21 22  1  0
 22 23  2  0
 11  4  1  0
 23 15  1  0
 22 17  1  0
  3 24  1  0
  3 25  1  0
  5 26  1  0
 10 27  1  0
 11 28  1  0
 12 29  1  0
 13 30  1  0
 13 31  1  0
 14 32  1  0
 14 33  1  0
 16 34  1  0
 18 35  1  0
 19 36  1  0
 20 37  1  0
 21 38  1  0
M  END
>  <Energy>  (1159) 
920.13180400155215

>  <compound_id>  (1159) 
46111

>  <target_id>  (1159) 
1

>  <reference_id>  (1159) 
116

>  <inspiration_ids>  (1159) 
[116, 52]

>  <energy_score>  (1159) 
835.9047857336702

>  <distance_score>  (1159) 
3.8356085045450095

>  <path>  (1159) 
/opt/xchem-fragalysis-2/maxwin/BulkDock/SCRATCH/511022/C46111-P116/C46111-P116.minimised.mol

>  <scratch_subdir>  (1159) 
/opt/xchem-fragalysis-2/maxwin/BulkDock/SCRATCH/511022/C46111-P116

>  <fragmenstein_runtime>  (1159) 
22.23683261871338

>  <fragmenstein_outcome>  (1159) 
too moved

>  <fragmenstein_mode>  (1159) 
expansion

>  <fragmenstein_error>  (1159) 


$$$$
C46111-P52
     RDKit          3D

 38 40  0  0  0  0  0  0  0  0999 V2000
   -6.4037  -17.3523   23.1671 O   0  0  0  0  0  0  0  0  0  0  0  0
   -5.8948  -18.3968   23.4372 C   0  0  0  0  0  0  0  0  0  0  0  0
   -4.1001  -18.6972   24.5942 C   0  0  0  0  0  0  0  0  0  0  0  0
   -2.5149  -17.7348   25.3897 N   0  0  0  0  0  0  0  0  0  0  0  0
   -2.4103  -16.2503   25.4686 C   0  0  0  0  0  0  0  0  0  0  0  0
   -1.9416  -15.7449   26.5781 N   0  0  0  0  0  0  0  0  0  0  0  0
   -0.8115  -16.4473   26.6186 C   0  0  0  0  0  0  0  0  0  0  0  0
    0.7162  -15.7012   27.1706 C   0  0  0  0  0  0  0  0  0  0  0  0
    0.9288  -14.9068   28.1053 O   0  0  0  0  0  0  0  0  0  0  0  0
    1.8914  -15.9061   26.4369 O   0  0  0  0  0  0  0  0  0  0  0  0
   -1.4770  -17.7102   26.4560 C   0  0  0  0  0  0  0  0  0  0  0  0
   -6.6179  -20.0009   23.0612 N   0  0  0  0  0  0  0  0  0  0  0  0
   -8.3330  -20.4917   22.3439 C   0  0  0  0  0  0  0  0  0  0  0  0
  -10.1203  -20.9832   22.8780 C   0  0  0  0  0  0  0  0  0  0  0  0
  -10.8372  -22.1701   23.8966 C   0  0  0  0  0  0  0  0  0  0  0  0
  -10.3083  -23.2699   24.5911 C   0  0  0  0  0  0  0  0  0  0  0  0
  -11.0670  -23.5481   25.7073 N   0  0  0  0  0  0  0  0  0  0  0  0
  -11.0007  -24.5881   26.6399 C   0  0  0  0  0  0  0  0  0  0  0  0
  -11.4525  -24.3891   27.8894 C   0  0  0  0  0  0  0  0  0  0  0  0
  -11.8463  -23.0412   28.2440 C   0  0  0  0  0  0  0  0  0  0  0  0
  -11.9784  -22.0953   27.2918 C   0  0  0  0  0  0  0  0  0  0  0  0
  -11.7907  -22.4042   25.9042 C   0  0  0  0  0  0  0  0  0  0  0  0
  -11.9199  -21.7544   24.7412 N   0  0  0  0  0  0  0  0  0  0  0  0
   -3.3942  -19.4277   24.1147 H   0  0  0  0  0  0  0  0  0  0  0  0
   -4.4942  -19.1729   25.4997 H   0  0  0  0  0  0  0  0  0  0  0  0
   -2.8771  -15.5801   24.7652 H   0  0  0  0  0  0  0  0  0  0  0  0
    2.5566  -15.5041   27.0387 H   0  0  0  0  0  0  0  0  0  0  0  0
   -1.2528  -18.5453   27.0799 H   0  0  0  0  0  0  0  0  0  0  0  0
   -5.9648  -20.7222   23.3041 H   0  0  0  0  0  0  0  0  0  0  0  0
   -8.3226  -21.4578   22.9079 H   0  0  0  0  0  0  0  0  0  0  0  0
   -8.4685  -20.6883   21.2782 H   0  0  0  0  0  0  0  0  0  0  0  0
  -10.5614  -20.0797   23.2857 H   0  0  0  0  0  0  0  0  0  0  0  0
  -10.6107  -21.2126   21.9198 H   0  0  0  0  0  0  0  0  0  0  0  0
   -9.3436  -23.7308   24.4970 H   0  0  0  0  0  0  0  0  0  0  0  0
  -10.5645  -25.5191   26.3201 H   0  0  0  0  0  0  0  0  0  0  0  0
  -11.4102  -25.1551   28.6549 H   0  0  0  0  0  0  0  0  0  0  0  0
  -11.9335  -22.7891   29.2967 H   0  0  0  0  0  0  0  0  0  0  0  0
  -12.0941  -21.0638   27.5744 H   0  0  0  0  0  0  0  0  0  0  0  0
  1  2  2  0
  2  3  1  0
  3  4  1  0
  4  5  1  0
  5  6  2  0
  6  7  1  0
  7  8  1  0
  8  9  2  0
  8 10  1  0
  7 11  2  0
  2 12  1  0
 12 13  1  0
 13 14  1  0
 14 15  1  0
 15 16  2  0
 16 17  1  0
 17 18  1  0
 18 19  2  0
 19 20  1  0
 20 21  2  0
 21 22  1  0
 22 23  2  0
 11  4  1  0
 23 15  1  0
 22 17  1  0
  3 24  1  0
  3 25  1  0
  5 26  1  0
 10 27  1  0
 11 28  1  0
 12 29  1  0
 13 30  1  0
 13 31  1  0
 14 32  1  0
 14 33  1  0
 16 34  1  0
 18 35  1  0
 19 36  1  0
 20 37  1  0
 21 38  1  0
M  END
>  <Energy>  (1160) 
655.06523136849785

>  <compound_id>  (1160) 
46111

>  <target_id>  (1160) 
1

>  <reference_id>  (1160) 
52

>  <inspiration_ids>  (1160) 
[116, 52]

>  <energy_score>  (1160) 
570.8382131006206

>  <distance_score>  (1160) 
6.285851419850538

>  <path>  (1160) 
/opt/xchem-fragalysis-2/maxwin/BulkDock/SCRATCH/511022/C46111-P52/C46111-P52.minimised.mol

>  <scratch_subdir>  (1160) 
/opt/xchem-fragalysis-2/maxwin/BulkDock/SCRATCH/511022/C46111-P52

>  <fragmenstein_runtime>  (1160) 
23.45386266708374

>  <fragmenstein_outcome>  (1160) 
too moved

>  <fragmenstein_mode>  (1160) 
expansion

>  <fragmenstein_error>  (1160) 


$$$$
C46112-P52
     RDKit          2D

  0  0  0  0  0  0  0  0  0  0999 V2000
M  END
>  <compound_id>  (1161) 
46112

>  <target_id>  (1161) 
1

>  <reference_id>  (1161) 
52

>  <inspiration_ids>  (1161) 
[116, 52]

>  <energy_score>  (1161) 
nan

>  <distance_score>  (1161) 
nan

>  <path>  (1161) 
/opt/xchem-fragalysis-2/maxwin/BulkDock/SCRATCH/511022/C46112-P52/C46112-P52.minimised.mol

>  <scratch_subdir>  (1161) 
/opt/xchem-fragalysis-2/maxwin/BulkDock/SCRATCH/511022/C46112-P52

>  <fragmenstein_runtime>  (1161) 
0.26696109771728516

>  <fragmenstein_outcome>  (1161) 
too distant

>  <fragmenstein_mode>  (1161) 
expansion

>  <fragmenstein_error>  (1161) 
DistanceError: hit1

$$$$
C46113-P116
     RDKit          3D

 44 47  0  0  0  0  0  0  0  0999 V2000
   -8.7529  -16.1126   27.3589 O   0  0  0  0  0  0  0  0  0  0  0  0
   -8.0095  -16.7024   28.1067 C   0  0  0  0  0  0  0  0  0  0  0  0
   -6.5727  -16.0314   29.2058 N   0  0  0  0  0  0  0  0  0  0  0  0
   -6.0901  -14.2558   29.5446 C   0  0  0  0  0  0  0  0  0  0  0  0
   -4.3097  -13.4134   29.7625 C   0  0  0  0  0  0  0  0  0  0  0  0
   -3.5111  -12.2641   29.5249 C   0  0  0  0  0  0  0  0  0  0  0  0
   -2.0997  -12.5026   29.1965 N   0  0  0  0  0  0  0  0  0  0  0  0
   -1.0096  -11.6112   29.2634 C   0  0  0  0  0  0  0  0  0  0  0  0
    0.2460  -12.0376   29.0511 C   0  0  0  0  0  0  0  0  0  0  0  0
    0.4732  -13.4378   28.7752 C   0  0  0  0  0  0  0  0  0  0  0  0
   -0.5486  -14.3093   28.7725 C   0  0  0  0  0  0  0  0  0  0  0  0
   -1.8729  -13.8677   29.0012 C   0  0  0  0  0  0  0  0  0  0  0  0
   -2.9774  -14.5462   29.3325 N   0  0  0  0  0  0  0  0  0  0  0  0
   -8.1394  -18.4274   28.5771 N   0  0  0  0  0  0  0  0  0  0  0  0
   -9.4619  -19.7751   28.2093 C   0  0  0  0  0  0  0  0  0  0  0  0
  -10.4457  -21.3434   27.5895 C   0  0  0  0  0  0  0  0  0  0  0  0
  -11.9302  -21.8161   27.6261 C   0  0  0  0  0  0  0  0  0  0  0  0
  -12.3574  -20.9455   28.6960 C   0  0  0  0  0  0  0  0  0  0  0  0
  -10.9528  -20.7516   29.3020 C   0  0  0  0  0  0  0  0  0  0  0  0
  -11.4425  -21.2465   30.5145 N   0  0  0  0  0  0  0  0  0  0  0  0
  -12.0371  -22.3903   30.7733 C   0  0  0  0  0  0  0  0  0  0  0  0
  -11.3224  -23.0592   31.7419 C   0  0  0  0  0  0  0  0  0  0  0  0
  -10.4620  -22.1933   32.2667 N   0  0  0  0  0  0  0  0  0  0  0  0
  -10.6479  -21.1104   31.4737 C   0  0  0  0  0  0  0  0  0  0  0  0
   -6.0734  -16.7860   29.6646 H   0  0  0  0  0  0  0  0  0  0  0  0
   -6.4881  -14.1324   30.5514 H   0  0  0  0  0  0  0  0  0  0  0  0
   -6.8244  -13.7935   28.8804 H   0  0  0  0  0  0  0  0  0  0  0  0
   -3.5687  -11.4224   30.1450 H   0  0  0  0  0  0  0  0  0  0  0  0
   -1.1823  -10.5886   29.5437 H   0  0  0  0  0  0  0  0  0  0  0  0
    1.0981  -11.3709   29.1379 H   0  0  0  0  0  0  0  0  0  0  0  0
    1.4915  -13.7769   28.6132 H   0  0  0  0  0  0  0  0  0  0  0  0
   -0.3911  -15.3654   28.6328 H   0  0  0  0  0  0  0  0  0  0  0  0
   -7.3892  -18.6607   29.1989 H   0  0  0  0  0  0  0  0  0  0  0  0
   -9.7061  -18.7344   27.7653 H   0  0  0  0  0  0  0  0  0  0  0  0
  -10.6975  -21.0500   26.5992 H   0  0  0  0  0  0  0  0  0  0  0  0
   -9.9443  -22.3192   27.9259 H   0  0  0  0  0  0  0  0  0  0  0  0
  -12.4338  -21.7626   26.6651 H   0  0  0  0  0  0  0  0  0  0  0  0
  -11.9582  -22.8808   27.8921 H   0  0  0  0  0  0  0  0  0  0  0  0
  -13.1932  -21.3695   29.2035 H   0  0  0  0  0  0  0  0  0  0  0  0
  -12.7330  -19.9469   28.7521 H   0  0  0  0  0  0  0  0  0  0  0  0
  -10.5406  -21.7667   29.3180 H   0  0  0  0  0  0  0  0  0  0  0  0
  -12.8722  -22.7220   30.1992 H   0  0  0  0  0  0  0  0  0  0  0  0
  -11.1868  -24.0615   32.0891 H   0  0  0  0  0  0  0  0  0  0  0  0
  -10.5973  -20.1150   31.9475 H   0  0  0  0  0  0  0  0  0  0  0  0
  1  2  2  0
  2  3  1  0
  3  4  1  0
  4  5  1  0
  5  6  2  0
  6  7  1  0
  7  8  1  0
  8  9  2  0
  9 10  1  0
 10 11  2  0
 11 12  1  0
 12 13  2  0
  2 14  1  0
 14 15  1  0
 15 16  1  0
 16 17  1  0
 17 18  1  0
 18 19  1  0
 19 20  1  0
 20 21  1  0
 21 22  2  0
 22 23  1  0
 23 24  2  0
 13  5  1  0
 19 15  1  0
 24 20  1  0
 12  7  1  0
  3 25  1  0
  4 26  1  0
  4 27  1  0
  6 28  1  0
  8 29  1  0
  9 30  1  0
 10 31  1  0
 11 32  1  0
 14 33  1  0
 15 34  1  0
 16 35  1  0
 16 36  1  0
 17 37  1  0
 17 38  1  0
 18 39  1  0
 18 40  1  0
 19 41  1  0
 21 42  1  0
 22 43  1  0
 24 44  1  0
M  END
>  <Energy>  (1162) 
822.99706933309972

>  <compound_id>  (1162) 
46113

>  <target_id>  (1162) 
1

>  <reference_id>  (1162) 
116

>  <inspiration_ids>  (1162) 
[116, 52]

>  <energy_score>  (1162) 
839.7490563823212

>  <distance_score>  (1162) 
2.7391689995209227

>  <path>  (1162) 
/opt/xchem-fragalysis-2/maxwin/BulkDock/SCRATCH/511022/C46113-P116/C46113-P116.minimised.mol

>  <scratch_subdir>  (1162) 
/opt/xchem-fragalysis-2/maxwin/BulkDock/SCRATCH/511022/C46113-P116

>  <fragmenstein_runtime>  (1162) 
14.742658853530884

>  <fragmenstein_outcome>  (1162) 
too moved

>  <fragmenstein_mode>  (1162) 
expansion

>  <fragmenstein_error>  (1162) 


$$$$
C46113-P52
     RDKit          3D

 44 47  0  0  0  0  0  0  0  0999 V2000
   -7.1003  -16.5819   30.9105 O   0  0  0  0  0  0  0  0  0  0  0  0
   -7.0883  -16.8379   29.7633 C   0  0  0  0  0  0  0  0  0  0  0  0
   -5.9883  -15.9741   28.7125 N   0  0  0  0  0  0  0  0  0  0  0  0
   -4.7204  -14.7685   29.0514 C   0  0  0  0  0  0  0  0  0  0  0  0
   -3.7547  -13.1613   29.2101 C   0  0  0  0  0  0  0  0  0  0  0  0
   -4.4428  -11.6298   28.9854 C   0  0  0  0  0  0  0  0  0  0  0  0
   -3.5458  -11.1040   28.0810 N   0  0  0  0  0  0  0  0  0  0  0  0
   -4.2890  -10.7971   26.4772 C   0  0  0  0  0  0  0  0  0  0  0  0
   -3.6539  -11.3022   25.1685 C   0  0  0  0  0  0  0  0  0  0  0  0
   -2.6854  -12.7864   25.3972 C   0  0  0  0  0  0  0  0  0  0  0  0
   -2.2902  -13.3045   26.6550 C   0  0  0  0  0  0  0  0  0  0  0  0
   -2.4499  -12.6004   27.9976 C   0  0  0  0  0  0  0  0  0  0  0  0
   -2.4338  -13.1986   29.0958 N   0  0  0  0  0  0  0  0  0  0  0  0
   -8.2402  -18.0487   28.6959 N   0  0  0  0  0  0  0  0  0  0  0  0
   -9.7713  -19.3941   29.3083 C   0  0  0  0  0  0  0  0  0  0  0  0
   -9.9233  -20.8404   28.5349 C   0  0  0  0  0  0  0  0  0  0  0  0
  -11.3686  -21.2368   28.4899 C   0  0  0  0  0  0  0  0  0  0  0  0
  -11.9040  -20.6488   29.8185 C   0  0  0  0  0  0  0  0  0  0  0  0
  -10.6693  -20.1304   30.7148 C   0  0  0  0  0  0  0  0  0  0  0  0
  -10.5584  -21.2073   31.7084 N   0  0  0  0  0  0  0  0  0  0  0  0
  -10.4536  -22.5760   31.5617 C   0  0  0  0  0  0  0  0  0  0  0  0
  -10.5034  -23.0973   32.8313 C   0  0  0  0  0  0  0  0  0  0  0  0
  -10.8289  -22.1295   33.7268 N   0  0  0  0  0  0  0  0  0  0  0  0
  -10.9386  -21.0301   33.0220 C   0  0  0  0  0  0  0  0  0  0  0  0
   -6.0521  -16.3747   27.8183 H   0  0  0  0  0  0  0  0  0  0  0  0
   -3.7308  -15.0644   29.1619 H   0  0  0  0  0  0  0  0  0  0  0  0
   -4.3372  -14.8722   28.0096 H   0  0  0  0  0  0  0  0  0  0  0  0
   -5.4875  -11.3280   29.0625 H   0  0  0  0  0  0  0  0  0  0  0  0
   -5.3634  -10.6873   26.5413 H   0  0  0  0  0  0  0  0  0  0  0  0
   -3.9661  -11.1682   24.1416 H   0  0  0  0  0  0  0  0  0  0  0  0
   -2.5426  -13.4295   24.5409 H   0  0  0  0  0  0  0  0  0  0  0  0
   -2.0355  -14.3408   26.7885 H   0  0  0  0  0  0  0  0  0  0  0  0
   -8.0147  -17.9707   27.7583 H   0  0  0  0  0  0  0  0  0  0  0  0
  -10.6783  -18.9174   29.2757 H   0  0  0  0  0  0  0  0  0  0  0  0
   -9.0031  -21.1159   28.0749 H   0  0  0  0  0  0  0  0  0  0  0  0
   -9.7361  -21.7335   29.1177 H   0  0  0  0  0  0  0  0  0  0  0  0
  -11.8619  -20.8589   27.6020 H   0  0  0  0  0  0  0  0  0  0  0  0
  -11.5117  -22.3253   28.4783 H   0  0  0  0  0  0  0  0  0  0  0  0
  -12.5789  -21.3419   30.3328 H   0  0  0  0  0  0  0  0  0  0  0  0
  -12.4917  -19.7876   29.5225 H   0  0  0  0  0  0  0  0  0  0  0  0
  -10.9069  -19.3144   31.3752 H   0  0  0  0  0  0  0  0  0  0  0  0
  -10.3027  -23.0763   30.6182 H   0  0  0  0  0  0  0  0  0  0  0  0
  -10.3586  -24.1248   33.1365 H   0  0  0  0  0  0  0  0  0  0  0  0
  -11.2809  -20.0805   33.4135 H   0  0  0  0  0  0  0  0  0  0  0  0
  1  2  2  0
  2  3  1  0
  3  4  1  0
  4  5  1  0
  5  6  2  0
  6  7  1  0
  7  8  1  0
  8  9  2  0
  9 10  1  0
 10 11  2  0
 11 12  1  0
 12 13  2  0
  2 14  1  0
 14 15  1  0
 15 16  1  0
 16 17  1  0
 17 18  1  0
 18 19  1  0
 19 20  1  0
 20 21  1  0
 21 22  2  0
 22 23  1  0
 23 24  2  0
 13  5  1  0
 19 15  1  0
 24 20  1  0
 12  7  1  0
  3 25  1  0
  4 26  1  0
  4 27  1  0
  6 28  1  0
  8 29  1  0
  9 30  1  0
 10 31  1  0
 11 32  1  0
 14 33  1  0
 15 34  1  0
 16 35  1  0
 16 36  1  0
 17 37  1  0
 17 38  1  0
 18 39  1  0
 18 40  1  0
 19 41  1  0
 21 42  1  0
 22 43  1  0
 24 44  1  0
M  END
>  <Energy>  (1163) 
825.42095215128722

>  <compound_id>  (1163) 
46113

>  <target_id>  (1163) 
1

>  <reference_id>  (1163) 
52

>  <inspiration_ids>  (1163) 
[116, 52]

>  <energy_score>  (1163) 
842.1729392005153

>  <distance_score>  (1163) 
2.6530860031651025

>  <path>  (1163) 
/opt/xchem-fragalysis-2/maxwin/BulkDock/SCRATCH/511022/C46113-P52/C46113-P52.minimised.mol

>  <scratch_subdir>  (1163) 
/opt/xchem-fragalysis-2/maxwin/BulkDock/SCRATCH/511022/C46113-P52

>  <fragmenstein_runtime>  (1163) 
17.749117612838745

>  <fragmenstein_outcome>  (1163) 
too moved

>  <fragmenstein_mode>  (1163) 
expansion

>  <fragmenstein_error>  (1163) 


$$$$
C46114-P116
     RDKit          3D

 47 50  0  0  0  0  0  0  0  0999 V2000
   -7.4411  -19.1427   30.7793 O   0  0  0  0  0  0  0  0  0  0  0  0
   -7.6727  -18.7674   29.6799 C   0  0  0  0  0  0  0  0  0  0  0  0
   -6.6303  -17.5520   28.7691 N   0  0  0  0  0  0  0  0  0  0  0  0
   -4.9872  -16.5968   29.3088 C   0  0  0  0  0  0  0  0  0  0  0  0
   -3.3199  -15.8030   28.3792 C   0  0  0  0  0  0  0  0  0  0  0  0
   -1.8800  -14.9186   28.5320 C   0  0  0  0  0  0  0  0  0  0  0  0
   -0.8194  -14.9868   29.4277 C   0  0  0  0  0  0  0  0  0  0  0  0
   -0.0671  -13.8616   29.2419 N   0  0  0  0  0  0  0  0  0  0  0  0
    1.0272  -13.4174   29.9766 C   0  0  0  0  0  0  0  0  0  0  0  0
    1.5376  -12.2084   29.7029 C   0  0  0  0  0  0  0  0  0  0  0  0
    0.9271  -11.4254   28.6428 C   0  0  0  0  0  0  0  0  0  0  0  0
   -0.1103  -11.8818   27.9184 C   0  0  0  0  0  0  0  0  0  0  0  0
   -0.6632  -13.1521   28.2171 C   0  0  0  0  0  0  0  0  0  0  0  0
   -1.6982  -13.7991   27.7281 N   0  0  0  0  0  0  0  0  0  0  0  0
   -8.9870  -19.3352   28.4128 N   0  0  0  0  0  0  0  0  0  0  0  0
  -10.3603  -20.9096   28.4260 C   0  0  0  0  0  0  0  0  0  0  0  0
  -11.4761  -21.4437   26.9327 C   0  0  0  0  0  0  0  0  0  0  0  0
  -11.7981  -22.9566   26.6402 C   0  0  0  0  0  0  0  0  0  0  0  0
  -10.7847  -23.5925   27.4789 C   0  0  0  0  0  0  0  0  0  0  0  0
  -10.4387  -22.5000   28.5031 C   0  0  0  0  0  0  0  0  0  0  0  0
  -11.5401  -22.4554   29.4232 N   0  0  0  0  0  0  0  0  0  0  0  0
  -11.6526  -22.3226   30.7439 C   0  0  0  0  0  0  0  0  0  0  0  0
  -12.4873  -21.2957   30.8767 C   0  0  0  0  0  0  0  0  0  0  0  0
  -12.9398  -20.7744   29.7753 N   0  0  0  0  0  0  0  0  0  0  0  0
  -12.6536  -21.7798   29.0537 C   0  0  0  0  0  0  0  0  0  0  0  0
   -7.0695  -17.3272   27.9037 H   0  0  0  0  0  0  0  0  0  0  0  0
   -5.6514  -15.8345   29.7064 H   0  0  0  0  0  0  0  0  0  0  0  0
   -4.5573  -17.0517   28.3739 H   0  0  0  0  0  0  0  0  0  0  0  0
   -3.2290  -15.2546   29.3700 H   0  0  0  0  0  0  0  0  0  0  0  0
   -2.8014  -16.6862   27.9277 H   0  0  0  0  0  0  0  0  0  0  0  0
   -0.5748  -15.6432   30.2468 H   0  0  0  0  0  0  0  0  0  0  0  0
    1.4002  -14.0615   30.7613 H   0  0  0  0  0  0  0  0  0  0  0  0
    2.3642  -11.7831   30.2606 H   0  0  0  0  0  0  0  0  0  0  0  0
    1.3406  -10.4458   28.4616 H   0  0  0  0  0  0  0  0  0  0  0  0
   -0.5639  -11.2981   27.1310 H   0  0  0  0  0  0  0  0  0  0  0  0
   -8.9625  -18.7381   27.6195 H   0  0  0  0  0  0  0  0  0  0  0  0
  -10.8414  -20.5628   29.3429 H   0  0  0  0  0  0  0  0  0  0  0  0
  -11.4223  -20.9847   25.9693 H   0  0  0  0  0  0  0  0  0  0  0  0
  -12.4132  -20.9820   27.0812 H   0  0  0  0  0  0  0  0  0  0  0  0
  -12.8071  -23.2857   26.8791 H   0  0  0  0  0  0  0  0  0  0  0  0
  -11.7089  -23.2465   25.5922 H   0  0  0  0  0  0  0  0  0  0  0  0
  -11.1086  -24.5222   27.9250 H   0  0  0  0  0  0  0  0  0  0  0  0
   -9.9216  -23.9217   26.8908 H   0  0  0  0  0  0  0  0  0  0  0  0
   -9.3957  -22.7219   28.4108 H   0  0  0  0  0  0  0  0  0  0  0  0
  -11.3455  -23.0020   31.5306 H   0  0  0  0  0  0  0  0  0  0  0  0
  -12.8510  -20.9715   31.8084 H   0  0  0  0  0  0  0  0  0  0  0  0
  -13.1501  -21.9503   28.1453 H   0  0  0  0  0  0  0  0  0  0  0  0
  1  2  2  0
  2  3  1  0
  3  4  1  0
  4  5  1  0
  5  6  1  0
  6  7  2  0
  7  8  1  0
  8  9  1  0
  9 10  2  0
 10 11  1  0
 11 12  2  0
 12 13  1  0
 13 14  2  0
  2 15  1  0
 15 16  1  0
 16 17  1  0
 17 18  1  0
 18 19  1  0
 19 20  1  0
 20 21  1  0
 21 22  1  0
 22 23  2  0
 23 24  1  0
 24 25  2  0
 14  6  1  0
 20 16  1  0
 25 21  1  0
 13  8  1  0
  3 26  1  0
  4 27  1  0
  4 28  1  0
  5 29  1  0
  5 30  1  0
  7 31  1  0
  9 32  1  0
 10 33  1  0
 11 34  1  0
 12 35  1  0
 15 36  1  0
 16 37  1  0
 17 38  1  0
 17 39  1  0
 18 40  1  0
 18 41  1  0
 19 42  1  0
 19 43  1  0
 20 44  1  0
 22 45  1  0
 23 46  1  0
 25 47  1  0
M  END
>  <Energy>  (1164) 
760.96271835820426

>  <compound_id>  (1164) 
46114

>  <target_id>  (1164) 
1

>  <reference_id>  (1164) 
116

>  <inspiration_ids>  (1164) 
[116, 52]

>  <energy_score>  (1164) 
763.5083808296372

>  <distance_score>  (1164) 
2.4564345997709855

>  <path>  (1164) 
/opt/xchem-fragalysis-2/maxwin/BulkDock/SCRATCH/511022/C46114-P116/C46114-P116.minimised.mol

>  <scratch_subdir>  (1164) 
/opt/xchem-fragalysis-2/maxwin/BulkDock/SCRATCH/511022/C46114-P116

>  <fragmenstein_runtime>  (1164) 
25.161739349365234

>  <fragmenstein_outcome>  (1164) 
too moved

>  <fragmenstein_mode>  (1164) 
expansion

>  <fragmenstein_error>  (1164) 


$$$$
C46114-P52
     RDKit          3D

 47 50  0  0  0  0  0  0  0  0999 V2000
   -7.8521  -16.1516   30.5755 O   0  0  0  0  0  0  0  0  0  0  0  0
   -7.1099  -16.8316   30.4524 C   0  0  0  0  0  0  0  0  0  0  0  0
   -5.7842  -16.4484   31.7064 N   0  0  0  0  0  0  0  0  0  0  0  0
   -5.5999  -15.3231   32.6079 C   0  0  0  0  0  0  0  0  0  0  0  0
   -3.7272  -14.5374   31.9044 C   0  0  0  0  0  0  0  0  0  0  0  0
   -2.8497  -13.8921   30.1754 C   0  0  0  0  0  0  0  0  0  0  0  0
   -3.3704  -13.6039   28.8769 C   0  0  0  0  0  0  0  0  0  0  0  0
   -2.4214  -13.2345   27.4054 N   0  0  0  0  0  0  0  0  0  0  0  0
   -2.5670  -13.2107   25.7046 C   0  0  0  0  0  0  0  0  0  0  0  0
   -2.7674  -14.3040   24.8652 C   0  0  0  0  0  0  0  0  0  0  0  0
   -2.5585  -15.5917   25.9310 C   0  0  0  0  0  0  0  0  0  0  0  0
   -1.7083  -15.3398   26.9546 C   0  0  0  0  0  0  0  0  0  0  0  0
   -1.3433  -13.7990   27.7951 C   0  0  0  0  0  0  0  0  0  0  0  0
   -1.3605  -13.4061   29.3952 N   0  0  0  0  0  0  0  0  0  0  0  0
   -7.6878  -18.1936   29.0753 N   0  0  0  0  0  0  0  0  0  0  0  0
   -9.1459  -18.5356   28.2678 C   0  0  0  0  0  0  0  0  0  0  0  0
   -9.6046  -20.4182   27.9955 C   0  0  0  0  0  0  0  0  0  0  0  0
  -10.9325  -21.2010   28.2349 C   0  0  0  0  0  0  0  0  0  0  0  0
  -11.5534  -20.3296   29.2214 C   0  0  0  0  0  0  0  0  0  0  0  0
  -10.1973  -19.7321   29.7107 C   0  0  0  0  0  0  0  0  0  0  0  0
  -10.4045  -20.5176   31.1743 N   0  0  0  0  0  0  0  0  0  0  0  0
  -10.7390  -21.8683   31.3930 C   0  0  0  0  0  0  0  0  0  0  0  0
  -11.2362  -21.9609   32.6684 C   0  0  0  0  0  0  0  0  0  0  0  0
  -11.2361  -20.7427   33.2624 N   0  0  0  0  0  0  0  0  0  0  0  0
  -10.7182  -19.9175   32.3866 C   0  0  0  0  0  0  0  0  0  0  0  0
   -5.0849  -17.1902   31.6675 H   0  0  0  0  0  0  0  0  0  0  0  0
   -6.1210  -15.2713   33.5700 H   0  0  0  0  0  0  0  0  0  0  0  0
   -6.1759  -14.5433   32.1339 H   0  0  0  0  0  0  0  0  0  0  0  0
   -3.2815  -13.6171   32.3214 H   0  0  0  0  0  0  0  0  0  0  0  0
   -2.9531  -15.3010   31.9873 H   0  0  0  0  0  0  0  0  0  0  0  0
   -3.9053  -14.5097   28.5224 H   0  0  0  0  0  0  0  0  0  0  0  0
   -2.7691  -12.2997   25.1590 H   0  0  0  0  0  0  0  0  0  0  0  0
   -2.9810  -14.3905   23.8258 H   0  0  0  0  0  0  0  0  0  0  0  0
   -2.3076  -16.5317   25.4390 H   0  0  0  0  0  0  0  0  0  0  0  0
   -0.9223  -16.1082   27.0311 H   0  0  0  0  0  0  0  0  0  0  0  0
   -7.0156  -18.7477   28.8997 H   0  0  0  0  0  0  0  0  0  0  0  0
  -10.4042  -18.5177   29.1145 H   0  0  0  0  0  0  0  0  0  0  0  0
   -8.7500  -21.1089   28.1705 H   0  0  0  0  0  0  0  0  0  0  0  0
  -10.0353  -20.2077   27.0360 H   0  0  0  0  0  0  0  0  0  0  0  0
  -11.5554  -21.3491   27.3439 H   0  0  0  0  0  0  0  0  0  0  0  0
  -10.6960  -22.2057   28.5956 H   0  0  0  0  0  0  0  0  0  0  0  0
  -12.2041  -19.5551   28.8719 H   0  0  0  0  0  0  0  0  0  0  0  0
  -12.2097  -20.9044   29.8788 H   0  0  0  0  0  0  0  0  0  0  0  0
  -10.2727  -19.0299   30.5277 H   0  0  0  0  0  0  0  0  0  0  0  0
  -10.6246  -22.6310   30.6391 H   0  0  0  0  0  0  0  0  0  0  0  0
  -11.6129  -22.8370   33.1806 H   0  0  0  0  0  0  0  0  0  0  0  0
  -10.5509  -18.8692   32.5839 H   0  0  0  0  0  0  0  0  0  0  0  0
  1  2  2  0
  2  3  1  0
  3  4  1  0
  4  5  1  0
  5  6  1  0
  6  7  2  0
  7  8  1  0
  8  9  1  0
  9 10  2  0
 10 11  1  0
 11 12  2  0
 12 13  1  0
 13 14  2  0
  2 15  1  0
 15 16  1  0
 16 17  1  0
 17 18  1  0
 18 19  1  0
 19 20  1  0
 20 21  1  0
 21 22  1  0
 22 23  2  0
 23 24  1  0
 24 25  2  0
 14  6  1  0
 20 16  1  0
 25 21  1  0
 13  8  1  0
  3 26  1  0
  4 27  1  0
  4 28  1  0
  5 29  1  0
  5 30  1  0
  7 31  1  0
  9 32  1  0
 10 33  1  0
 11 34  1  0
 12 35  1  0
 15 36  1  0
 16 37  1  0
 17 38  1  0
 17 39  1  0
 18 40  1  0
 18 41  1  0
 19 42  1  0
 19 43  1  0
 20 44  1  0
 22 45  1  0
 23 46  1  0
 25 47  1  0
M  END
>  <Energy>  (1165) 
1435.3838069488529

>  <compound_id>  (1165) 
46114

>  <target_id>  (1165) 
1

>  <reference_id>  (1165) 
52

>  <inspiration_ids>  (1165) 
[116, 52]

>  <energy_score>  (1165) 
1437.929469420268

>  <distance_score>  (1165) 
2.554322035779597

>  <path>  (1165) 
/opt/xchem-fragalysis-2/maxwin/BulkDock/SCRATCH/511022/C46114-P52/C46114-P52.minimised.mol

>  <scratch_subdir>  (1165) 
/opt/xchem-fragalysis-2/maxwin/BulkDock/SCRATCH/511022/C46114-P52

>  <fragmenstein_runtime>  (1165) 
20.815619707107544

>  <fragmenstein_outcome>  (1165) 
too moved

>  <fragmenstein_mode>  (1165) 
expansion

>  <fragmenstein_error>  (1165) 


$$$$
C46115-P52
     RDKit          2D

  0  0  0  0  0  0  0  0  0  0999 V2000
M  END
>  <compound_id>  (1166) 
46115

>  <target_id>  (1166) 
1

>  <reference_id>  (1166) 
52

>  <inspiration_ids>  (1166) 
[116, 52]

>  <energy_score>  (1166) 
nan

>  <distance_score>  (1166) 
nan

>  <path>  (1166) 
/opt/xchem-fragalysis-2/maxwin/BulkDock/SCRATCH/511022/C46115-P52/C46115-P52.minimised.mol

>  <scratch_subdir>  (1166) 
/opt/xchem-fragalysis-2/maxwin/BulkDock/SCRATCH/511022/C46115-P52

>  <fragmenstein_runtime>  (1166) 
0.24886512756347656

>  <fragmenstein_outcome>  (1166) 
too distant

>  <fragmenstein_mode>  (1166) 
expansion

>  <fragmenstein_error>  (1166) 
DistanceError: hit0

$$$$
C46116-P116
     RDKit          3D

 43 45  0  0  0  0  0  0  0  0999 V2000
   -8.9820  -17.4367   26.9594 C   0  0  0  0  0  0  0  0  0  0  0  0
   -9.2906  -18.3322   28.0920 N   0  0  0  0  0  0  0  0  0  0  0  0
   -7.7087  -17.5169   28.3446 C   0  0  0  0  0  0  0  0  0  0  0  0
   -5.9227  -17.1978   29.1083 C   0  0  0  0  0  0  0  0  0  0  0  0
   -5.4785  -18.2371   27.8572 N   0  0  0  0  0  0  0  0  0  0  0  0
   -3.8112  -18.3377   27.7726 C   0  0  0  0  0  0  0  0  0  0  0  0
   -3.3194  -17.1677   27.6696 C   0  0  0  0  0  0  0  0  0  0  0  0
   -4.2631  -16.5074   28.5124 N   0  0  0  0  0  0  0  0  0  0  0  0
   -2.8806  -15.2906   28.7684 C   0  0  0  0  0  0  0  0  0  0  0  0
   -9.7096  -20.0900   28.1153 C   0  0  0  0  0  0  0  0  0  0  0  0
   -9.6815  -20.7522   27.2513 O   0  0  0  0  0  0  0  0  0  0  0  0
  -10.5118  -20.8370   29.4620 N   0  0  0  0  0  0  0  0  0  0  0  0
  -11.1914  -22.0346   29.5803 C   0  0  0  0  0  0  0  0  0  0  0  0
  -12.1252  -21.9721   30.6510 C   0  0  0  0  0  0  0  0  0  0  0  0
  -11.3553  -22.5555   31.7052 C   0  0  0  0  0  0  0  0  0  0  0  0
  -11.1145  -23.7885   31.9910 C   0  0  0  0  0  0  0  0  0  0  0  0
  -10.0982  -24.1759   32.6236 N   0  0  0  0  0  0  0  0  0  0  0  0
   -9.6540  -25.3323   32.8044 C   0  0  0  0  0  0  0  0  0  0  0  0
   -8.4584  -25.2063   32.3351 C   0  0  0  0  0  0  0  0  0  0  0  0
   -7.3830  -24.0925   33.3028 C   0  0  0  0  0  0  0  0  0  0  0  0
   -8.0289  -23.0742   33.8699 C   0  0  0  0  0  0  0  0  0  0  0  0
   -9.4165  -23.1423   32.7637 C   0  0  0  0  0  0  0  0  0  0  0  0
  -10.1687  -22.0355   32.3312 N   0  0  0  0  0  0  0  0  0  0  0  0
   -9.7791  -17.4618   26.2039 H   0  0  0  0  0  0  0  0  0  0  0  0
   -8.5794  -16.3957   26.7038 H   0  0  0  0  0  0  0  0  0  0  0  0
   -9.7647  -16.6961   27.2028 H   0  0  0  0  0  0  0  0  0  0  0  0
   -8.1316  -16.4924   28.4434 H   0  0  0  0  0  0  0  0  0  0  0  0
   -7.3757  -16.9452   27.5869 H   0  0  0  0  0  0  0  0  0  0  0  0
   -3.2557  -19.1521   27.2666 H   0  0  0  0  0  0  0  0  0  0  0  0
   -2.3583  -16.8444   27.2779 H   0  0  0  0  0  0  0  0  0  0  0  0
   -3.2488  -14.7461   29.5747 H   0  0  0  0  0  0  0  0  0  0  0  0
   -1.9080  -15.7275   28.9813 H   0  0  0  0  0  0  0  0  0  0  0  0
   -2.6151  -14.9168   27.7680 H   0  0  0  0  0  0  0  0  0  0  0  0
  -10.5821  -20.1620   30.1776 H   0  0  0  0  0  0  0  0  0  0  0  0
  -11.8530  -21.9113   28.7004 H   0  0  0  0  0  0  0  0  0  0  0  0
  -10.7492  -22.9396   29.1661 H   0  0  0  0  0  0  0  0  0  0  0  0
  -12.5029  -21.0099   30.8801 H   0  0  0  0  0  0  0  0  0  0  0  0
  -12.9716  -22.5171   30.2810 H   0  0  0  0  0  0  0  0  0  0  0  0
  -11.5770  -24.5928   31.7554 H   0  0  0  0  0  0  0  0  0  0  0  0
  -10.3517  -26.1327   32.9607 H   0  0  0  0  0  0  0  0  0  0  0  0
   -8.1493  -25.7597   31.4459 H   0  0  0  0  0  0  0  0  0  0  0  0
   -6.2927  -24.0968   33.1938 H   0  0  0  0  0  0  0  0  0  0  0  0
   -7.6618  -22.1474   34.3030 H   0  0  0  0  0  0  0  0  0  0  0  0
  1  2  1  0
  2  3  1  0
  3  4  1  0
  4  5  2  0
  5  6  1  0
  6  7  2  0
  7  8  1  0
  8  9  1  0
  2 10  1  0
 10 11  2  0
 10 12  1  0
 12 13  1  0
 13 14  1  0
 14 15  1  0
 15 16  2  0
 16 17  1  0
 17 18  1  0
 18 19  2  0
 19 20  1  0
 20 21  2  0
 21 22  1  0
 22 23  2  0
  8  4  1  0
 23 15  1  0
 22 17  1  0
  1 24  1  0
  1 25  1  0
  1 26  1  0
  3 27  1  0
  3 28  1  0
  6 29  1  0
  7 30  1  0
  9 31  1  0
  9 32  1  0
  9 33  1  0
 12 34  1  0
 13 35  1  0
 13 36  1  0
 14 37  1  0
 14 38  1  0
 16 39  1  0
 18 40  1  0
 19 41  1  0
 20 42  1  0
 21 43  1  0
M  END
>  <Energy>  (1167) 
1079.084880209921

>  <compound_id>  (1167) 
46116

>  <target_id>  (1167) 
1

>  <reference_id>  (1167) 
116

>  <inspiration_ids>  (1167) 
[116, 52]

>  <energy_score>  (1167) 
1092.6361942385938

>  <distance_score>  (1167) 
4.323127199354577

>  <path>  (1167) 
/opt/xchem-fragalysis-2/maxwin/BulkDock/SCRATCH/511022/C46116-P116/C46116-P116.minimised.mol

>  <scratch_subdir>  (1167) 
/opt/xchem-fragalysis-2/maxwin/BulkDock/SCRATCH/511022/C46116-P116

>  <fragmenstein_runtime>  (1167) 
21.11469316482544

>  <fragmenstein_outcome>  (1167) 
too moved

>  <fragmenstein_mode>  (1167) 
expansion

>  <fragmenstein_error>  (1167) 


$$$$
C46116-P52
     RDKit          3D

 43 45  0  0  0  0  0  0  0  0999 V2000
   -9.8909  -19.8229   24.6181 C   0  0  0  0  0  0  0  0  0  0  0  0
   -9.8448  -19.9330   26.8256 N   0  0  0  0  0  0  0  0  0  0  0  0
   -7.6132  -19.8259   26.8691 C   0  0  0  0  0  0  0  0  0  0  0  0
   -5.7429  -18.5598   26.6638 C   0  0  0  0  0  0  0  0  0  0  0  0
   -5.4464  -16.9305   27.0568 N   0  0  0  0  0  0  0  0  0  0  0  0
   -4.0552  -15.5892   27.0878 C   0  0  0  0  0  0  0  0  0  0  0  0
   -2.9939  -16.0775   26.6937 C   0  0  0  0  0  0  0  0  0  0  0  0
   -4.3064  -17.2758   27.2442 N   0  0  0  0  0  0  0  0  0  0  0  0
   -2.5361  -17.7620   26.3647 C   0  0  0  0  0  0  0  0  0  0  0  0
  -10.3089  -21.3545   27.7559 C   0  0  0  0  0  0  0  0  0  0  0  0
  -10.5421  -22.4357   27.4299 O   0  0  0  0  0  0  0  0  0  0  0  0
  -10.4167  -20.7280   29.0308 N   0  0  0  0  0  0  0  0  0  0  0  0
  -10.9355  -21.2130   30.2571 C   0  0  0  0  0  0  0  0  0  0  0  0
  -10.9417  -20.4141   31.5642 C   0  0  0  0  0  0  0  0  0  0  0  0
  -11.3284  -21.3666   32.6334 C   0  0  0  0  0  0  0  0  0  0  0  0
  -12.3298  -22.2978   32.4129 C   0  0  0  0  0  0  0  0  0  0  0  0
  -11.5167  -23.4060   32.3412 N   0  0  0  0  0  0  0  0  0  0  0  0
  -11.4625  -24.4254   31.3928 C   0  0  0  0  0  0  0  0  0  0  0  0
  -10.4952  -25.3451   31.5009 C   0  0  0  0  0  0  0  0  0  0  0  0
   -9.6187  -25.2998   32.6613 C   0  0  0  0  0  0  0  0  0  0  0  0
   -9.6391  -24.2564   33.5139 C   0  0  0  0  0  0  0  0  0  0  0  0
  -10.5005  -23.1767   33.2495 C   0  0  0  0  0  0  0  0  0  0  0  0
  -10.3704  -21.8860   33.4541 N   0  0  0  0  0  0  0  0  0  0  0  0
   -9.9891  -20.7119   23.7440 H   0  0  0  0  0  0  0  0  0  0  0  0
  -11.0793  -19.9127   24.5838 H   0  0  0  0  0  0  0  0  0  0  0  0
   -9.6638  -18.9839   23.7850 H   0  0  0  0  0  0  0  0  0  0  0  0
   -7.3435  -20.7903   27.4255 H   0  0  0  0  0  0  0  0  0  0  0  0
   -7.5322  -19.2704   27.7836 H   0  0  0  0  0  0  0  0  0  0  0  0
   -4.1204  -14.8475   27.8787 H   0  0  0  0  0  0  0  0  0  0  0  0
   -1.9819  -15.8889   27.0240 H   0  0  0  0  0  0  0  0  0  0  0  0
   -1.8711  -18.3287   27.0102 H   0  0  0  0  0  0  0  0  0  0  0  0
   -1.9494  -17.0697   25.6741 H   0  0  0  0  0  0  0  0  0  0  0  0
   -2.8876  -18.2720   25.4787 H   0  0  0  0  0  0  0  0  0  0  0  0
  -10.2078  -19.7422   28.9334 H   0  0  0  0  0  0  0  0  0  0  0  0
  -10.5371  -22.2256   30.3527 H   0  0  0  0  0  0  0  0  0  0  0  0
  -11.9894  -21.3904   29.9943 H   0  0  0  0  0  0  0  0  0  0  0  0
  -10.0173  -19.9014   31.8031 H   0  0  0  0  0  0  0  0  0  0  0  0
  -11.7089  -19.6750   31.5493 H   0  0  0  0  0  0  0  0  0  0  0  0
  -13.2220  -22.2388   31.8081 H   0  0  0  0  0  0  0  0  0  0  0  0
  -12.1445  -24.3721   30.5559 H   0  0  0  0  0  0  0  0  0  0  0  0
  -10.3572  -26.0927   30.7362 H   0  0  0  0  0  0  0  0  0  0  0  0
   -8.9143  -26.1105   32.8102 H   0  0  0  0  0  0  0  0  0  0  0  0
   -8.9811  -24.1555   34.3596 H   0  0  0  0  0  0  0  0  0  0  0  0
  1  2  1  0
  2  3  1  0
  3  4  1  0
  4  5  2  0
  5  6  1  0
  6  7  2  0
  7  8  1  0
  8  9  1  0
  2 10  1  0
 10 11  2  0
 10 12  1  0
 12 13  1  0
 13 14  1  0
 14 15  1  0
 15 16  2  0
 16 17  1  0
 17 18  1  0
 18 19  2  0
 19 20  1  0
 20 21  2  0
 21 22  1  0
 22 23  2  0
  8  4  1  0
 23 15  1  0
 22 17  1  0
  1 24  1  0
  1 25  1  0
  1 26  1  0
  3 27  1  0
  3 28  1  0
  6 29  1  0
  7 30  1  0
  9 31  1  0
  9 32  1  0
  9 33  1  0
 12 34  1  0
 13 35  1  0
 13 36  1  0
 14 37  1  0
 14 38  1  0
 16 39  1  0
 18 40  1  0
 19 41  1  0
 20 42  1  0
 21 43  1  0
M  END
>  <Energy>  (1168) 
1605.4012626271826

>  <compound_id>  (1168) 
46116

>  <target_id>  (1168) 
1

>  <reference_id>  (1168) 
52

>  <inspiration_ids>  (1168) 
[116, 52]

>  <energy_score>  (1168) 
1618.9525766558536

>  <distance_score>  (1168) 
3.8802804775481854

>  <path>  (1168) 
/opt/xchem-fragalysis-2/maxwin/BulkDock/SCRATCH/511022/C46116-P52/C46116-P52.minimised.mol

>  <scratch_subdir>  (1168) 
/opt/xchem-fragalysis-2/maxwin/BulkDock/SCRATCH/511022/C46116-P52

>  <fragmenstein_runtime>  (1168) 
27.581228971481323

>  <fragmenstein_outcome>  (1168) 
too moved

>  <fragmenstein_mode>  (1168) 
expansion

>  <fragmenstein_error>  (1168) 


$$$$
C46117-P52
     RDKit          2D

  0  0  0  0  0  0  0  0  0  0999 V2000
M  END
>  <compound_id>  (1169) 
46117

>  <target_id>  (1169) 
1

>  <reference_id>  (1169) 
52

>  <inspiration_ids>  (1169) 
[116, 52]

>  <energy_score>  (1169) 
nan

>  <distance_score>  (1169) 
nan

>  <path>  (1169) 
/opt/xchem-fragalysis-2/maxwin/BulkDock/SCRATCH/511022/C46117-P52/C46117-P52.minimised.mol

>  <scratch_subdir>  (1169) 
/opt/xchem-fragalysis-2/maxwin/BulkDock/SCRATCH/511022/C46117-P52

>  <fragmenstein_runtime>  (1169) 
0.26956701278686523

>  <fragmenstein_outcome>  (1169) 
too distant

>  <fragmenstein_mode>  (1169) 
expansion

>  <fragmenstein_error>  (1169) 
DistanceError: hit1

$$$$
C46118-P116
     RDKit          3D

 33 35  0  0  0  0  0  0  0  0999 V2000
   -7.0171  -21.7946   34.3413 C   0  0  0  0  0  0  0  0  0  0  0  0
   -7.0143  -20.3660   34.2600 N   0  0  0  0  0  0  0  0  0  0  0  0
   -8.0310  -19.5034   34.5154 C   0  0  0  0  0  0  0  0  0  0  0  0
   -7.5763  -18.2752   34.6268 N   0  0  0  0  0  0  0  0  0  0  0  0
   -6.1690  -18.3291   34.4614 C   0  0  0  0  0  0  0  0  0  0  0  0
   -5.2768  -17.1026   34.6218 C   0  0  0  0  0  0  0  0  0  0  0  0
   -5.7775  -16.1723   35.1346 O   0  0  0  0  0  0  0  0  0  0  0  0
   -3.8505  -17.2632   33.9713 N   0  0  0  0  0  0  0  0  0  0  0  0
   -2.8421  -16.3181   33.7504 N   0  0  0  0  0  0  0  0  0  0  0  0
   -1.3826  -16.4922   33.1580 C   0  0  0  0  0  0  0  0  0  0  0  0
   -0.7987  -17.4650   32.8467 O   0  0  0  0  0  0  0  0  0  0  0  0
   -0.6910  -15.1046   33.0630 C   0  0  0  0  0  0  0  0  0  0  0  0
   -0.3615  -14.4288   31.7163 C   0  0  0  0  0  0  0  0  0  0  0  0
   -0.3633  -13.0501   31.4946 C   0  0  0  0  0  0  0  0  0  0  0  0
   -0.0388  -12.8615   30.1973 N   0  0  0  0  0  0  0  0  0  0  0  0
    0.0930  -11.7901   29.3512 C   0  0  0  0  0  0  0  0  0  0  0  0
    0.5745  -12.1797   28.1628 C   0  0  0  0  0  0  0  0  0  0  0  0
    0.9986  -13.8963   28.1494 S   0  0  0  0  0  0  0  0  0  0  0  0
    0.2752  -14.0803   29.7037 C   0  0  0  0  0  0  0  0  0  0  0  0
    0.0422  -15.0586   30.5447 N   0  0  0  0  0  0  0  0  0  0  0  0
   -5.8473  -19.6467   34.1890 C   0  0  0  0  0  0  0  0  0  0  0  0
   -6.4317  -22.2175   33.5323 H   0  0  0  0  0  0  0  0  0  0  0  0
   -6.4602  -22.0365   35.2527 H   0  0  0  0  0  0  0  0  0  0  0  0
   -8.0014  -22.1939   34.4657 H   0  0  0  0  0  0  0  0  0  0  0  0
   -9.0609  -19.7978   34.6273 H   0  0  0  0  0  0  0  0  0  0  0  0
   -3.7106  -18.2285   33.6930 H   0  0  0  0  0  0  0  0  0  0  0  0
   -3.0016  -15.3390   33.9847 H   0  0  0  0  0  0  0  0  0  0  0  0
    0.2664  -15.2415   33.5830 H   0  0  0  0  0  0  0  0  0  0  0  0
   -1.2573  -14.3903   33.6710 H   0  0  0  0  0  0  0  0  0  0  0  0
   -0.5795  -12.2192   32.1467 H   0  0  0  0  0  0  0  0  0  0  0  0
   -0.1784  -10.7926   29.6560 H   0  0  0  0  0  0  0  0  0  0  0  0
    0.7226  -11.5439   27.3002 H   0  0  0  0  0  0  0  0  0  0  0  0
   -4.8988  -20.1434   34.0304 H   0  0  0  0  0  0  0  0  0  0  0  0
  1  2  1  0
  2  3  1  0
  3  4  2  0
  4  5  1  0
  5  6  1  0
  6  7  2  0
  6  8  1  0
  8  9  1  0
  9 10  1  0
 10 11  2  0
 10 12  1  0
 12 13  1  0
 13 14  2  0
 14 15  1  0
 15 16  1  0
 16 17  2  0
 17 18  1  0
 18 19  1  0
 19 20  2  0
  5 21  2  0
 21  2  1  0
 20 13  1  0
 19 15  1  0
  1 22  1  0
  1 23  1  0
  1 24  1  0
  3 25  1  0
  8 26  1  0
  9 27  1  0
 12 28  1  0
 12 29  1  0
 14 30  1  0
 16 31  1  0
 17 32  1  0
 21 33  1  0
M  END
>  <Energy>  (1170) 
174.09368843926069

>  <compound_id>  (1170) 
46118

>  <target_id>  (1170) 
1

>  <reference_id>  (1170) 
116

>  <inspiration_ids>  (1170) 
[116, 52]

>  <energy_score>  (1170) 
36.82828897161312

>  <distance_score>  (1170) 
6.709552506728857

>  <path>  (1170) 
/opt/xchem-fragalysis-2/maxwin/BulkDock/SCRATCH/511022/C46118-P116/C46118-P116.minimised.mol

>  <scratch_subdir>  (1170) 
/opt/xchem-fragalysis-2/maxwin/BulkDock/SCRATCH/511022/C46118-P116

>  <fragmenstein_runtime>  (1170) 
9.547263383865356

>  <fragmenstein_outcome>  (1170) 
too moved

>  <fragmenstein_mode>  (1170) 
expansion

>  <fragmenstein_error>  (1170) 


$$$$
C46118-P52
     RDKit          3D

 33 35  0  0  0  0  0  0  0  0999 V2000
   -9.9806  -24.3591   32.7963 C   0  0  0  0  0  0  0  0  0  0  0  0
  -10.1232  -22.9641   33.1178 N   0  0  0  0  0  0  0  0  0  0  0  0
  -11.2902  -22.2785   33.2275 C   0  0  0  0  0  0  0  0  0  0  0  0
  -11.0670  -20.9876   33.2404 N   0  0  0  0  0  0  0  0  0  0  0  0
   -9.6813  -20.8144   33.1719 C   0  0  0  0  0  0  0  0  0  0  0  0
   -9.1494  -19.3166   32.8017 C   0  0  0  0  0  0  0  0  0  0  0  0
   -9.8300  -18.8512   31.9305 O   0  0  0  0  0  0  0  0  0  0  0  0
   -7.7152  -18.6877   33.5573 N   0  0  0  0  0  0  0  0  0  0  0  0
   -6.8193  -17.3036   33.1807 N   0  0  0  0  0  0  0  0  0  0  0  0
   -6.8824  -15.9443   33.6929 C   0  0  0  0  0  0  0  0  0  0  0  0
   -7.5309  -15.4738   34.5859 O   0  0  0  0  0  0  0  0  0  0  0  0
   -5.8028  -14.9681   32.5484 C   0  0  0  0  0  0  0  0  0  0  0  0
   -4.0800  -14.2285   32.3666 C   0  0  0  0  0  0  0  0  0  0  0  0
   -2.9231  -14.5171   31.6385 C   0  0  0  0  0  0  0  0  0  0  0  0
   -2.0848  -13.3867   31.4467 N   0  0  0  0  0  0  0  0  0  0  0  0
   -1.0456  -12.9000   30.5464 C   0  0  0  0  0  0  0  0  0  0  0  0
   -0.7061  -11.6262   30.8713 C   0  0  0  0  0  0  0  0  0  0  0  0
   -1.2704  -11.0022   32.3655 S   0  0  0  0  0  0  0  0  0  0  0  0
   -2.3250  -12.5411   32.5836 C   0  0  0  0  0  0  0  0  0  0  0  0
   -3.5544  -12.7951   33.0462 N   0  0  0  0  0  0  0  0  0  0  0  0
   -9.0906  -22.0665   33.1938 C   0  0  0  0  0  0  0  0  0  0  0  0
  -10.7484  -24.6372   32.0705 H   0  0  0  0  0  0  0  0  0  0  0  0
  -10.0819  -24.9358   33.7181 H   0  0  0  0  0  0  0  0  0  0  0  0
   -8.9964  -24.5330   32.3547 H   0  0  0  0  0  0  0  0  0  0  0  0
  -12.2671  -22.7432   33.2517 H   0  0  0  0  0  0  0  0  0  0  0  0
   -7.3338  -19.3659   34.2038 H   0  0  0  0  0  0  0  0  0  0  0  0
   -6.2244  -17.3234   32.3608 H   0  0  0  0  0  0  0  0  0  0  0  0
   -6.0703  -15.2516   31.5456 H   0  0  0  0  0  0  0  0  0  0  0  0
   -6.4068  -14.0963   32.7366 H   0  0  0  0  0  0  0  0  0  0  0  0
   -2.5074  -15.4867   31.4343 H   0  0  0  0  0  0  0  0  0  0  0  0
   -0.7475  -13.4136   29.6635 H   0  0  0  0  0  0  0  0  0  0  0  0
   -0.1413  -10.9032   30.3904 H   0  0  0  0  0  0  0  0  0  0  0  0
   -8.0810  -22.4109   33.0502 H   0  0  0  0  0  0  0  0  0  0  0  0
  1  2  1  0
  2  3  1  0
  3  4  2  0
  4  5  1  0
  5  6  1  0
  6  7  2  0
  6  8  1  0
  8  9  1  0
  9 10  1  0
 10 11  2  0
 10 12  1  0
 12 13  1  0
 13 14  2  0
 14 15  1  0
 15 16  1  0
 16 17  2  0
 17 18  1  0
 18 19  1  0
 19 20  2  0
  5 21  2  0
 21  2  1  0
 20 13  1  0
 19 15  1  0
  1 22  1  0
  1 23  1  0
  1 24  1  0
  3 25  1  0
  8 26  1  0
  9 27  1  0
 12 28  1  0
 12 29  1  0
 14 30  1  0
 16 31  1  0
 17 32  1  0
 21 33  1  0
M  END
>  <Energy>  (1171) 
365.59947950054624

>  <compound_id>  (1171) 
46118

>  <target_id>  (1171) 
1

>  <reference_id>  (1171) 
52

>  <inspiration_ids>  (1171) 
[116, 52]

>  <energy_score>  (1171) 
212.84472086114454

>  <distance_score>  (1171) 
4.8066305876066755

>  <path>  (1171) 
/opt/xchem-fragalysis-2/maxwin/BulkDock/SCRATCH/511022/C46118-P52/C46118-P52.minimised.mol

>  <scratch_subdir>  (1171) 
/opt/xchem-fragalysis-2/maxwin/BulkDock/SCRATCH/511022/C46118-P52

>  <fragmenstein_runtime>  (1171) 
16.3414523601532

>  <fragmenstein_outcome>  (1171) 
too moved

>  <fragmenstein_mode>  (1171) 
expansion

>  <fragmenstein_error>  (1171) 


$$$$
C46119-P52
     RDKit          2D

  0  0  0  0  0  0  0  0  0  0999 V2000
M  END
>  <compound_id>  (1172) 
46119

>  <target_id>  (1172) 
1

>  <reference_id>  (1172) 
52

>  <inspiration_ids>  (1172) 
[116, 52]

>  <energy_score>  (1172) 
nan

>  <distance_score>  (1172) 
nan

>  <path>  (1172) 
/opt/xchem-fragalysis-2/maxwin/BulkDock/SCRATCH/511022/C46119-P52/C46119-P52.minimised.mol

>  <scratch_subdir>  (1172) 
/opt/xchem-fragalysis-2/maxwin/BulkDock/SCRATCH/511022/C46119-P52

>  <fragmenstein_runtime>  (1172) 
0.30684542655944824

>  <fragmenstein_outcome>  (1172) 
too distant

>  <fragmenstein_mode>  (1172) 
expansion

>  <fragmenstein_error>  (1172) 
DistanceError: hit0

$$$$
C46120-P116
     RDKit          3D

 37 39  0  0  0  0  0  0  0  0999 V2000
   -4.8605  -14.9074   36.9771 O   0  0  0  0  0  0  0  0  0  0  0  0
   -5.1717  -15.5410   36.0146 C   0  0  0  0  0  0  0  0  0  0  0  0
   -6.4567  -15.9893   35.5670 N   0  0  0  0  0  0  0  0  0  0  0  0
   -7.7872  -15.7348   36.0876 C   0  0  0  0  0  0  0  0  0  0  0  0
   -8.9797  -16.2315   35.2307 C   0  0  0  0  0  0  0  0  0  0  0  0
   -9.1554  -15.3933   33.9652 C   0  0  0  0  0  0  0  0  0  0  0  0
   -9.2333  -14.0060   34.2775 O   0  0  0  0  0  0  0  0  0  0  0  0
   -8.8763  -17.6729   35.0173 N   0  0  0  0  0  0  0  0  0  0  0  0
   -8.0657  -18.4331   34.1161 C   0  0  0  0  0  0  0  0  0  0  0  0
   -7.3242  -18.0806   33.2503 O   0  0  0  0  0  0  0  0  0  0  0  0
   -8.1634  -19.8422   34.4588 C   0  0  0  0  0  0  0  0  0  0  0  0
   -7.5022  -20.1301   35.6497 C   0  0  0  0  0  0  0  0  0  0  0  0
   -6.9644  -21.3448   35.6365 N   0  0  0  0  0  0  0  0  0  0  0  0
   -7.4091  -21.8612   34.5351 C   0  0  0  0  0  0  0  0  0  0  0  0
   -7.1644  -23.4188   33.9899 S   0  0  0  0  0  0  0  0  0  0  0  0
   -9.1044  -23.5254   32.9707 C   0  0  0  0  0  0  0  0  0  0  0  0
   -9.2665  -21.9821   32.5658 C   0  0  0  0  0  0  0  0  0  0  0  0
   -8.2716  -21.1207   33.7909 N   0  0  0  0  0  0  0  0  0  0  0  0
   -4.0985  -15.9794   35.1275 C   0  0  0  0  0  0  0  0  0  0  0  0
   -2.8834  -15.3541   34.8809 C   0  0  0  0  0  0  0  0  0  0  0  0
   -2.0918  -16.0924   34.0376 N   0  0  0  0  0  0  0  0  0  0  0  0
   -2.7881  -17.1725   33.7891 C   0  0  0  0  0  0  0  0  0  0  0  0
   -4.0241  -17.1260   34.3688 N   0  0  0  0  0  0  0  0  0  0  0  0
   -6.3548  -16.4319   34.6617 H   0  0  0  0  0  0  0  0  0  0  0  0
   -7.8592  -14.6613   36.2935 H   0  0  0  0  0  0  0  0  0  0  0  0
   -7.8170  -16.2322   37.0651 H   0  0  0  0  0  0  0  0  0  0  0  0
   -9.8782  -16.0885   35.8449 H   0  0  0  0  0  0  0  0  0  0  0  0
   -8.3326  -15.5439   33.2677 H   0  0  0  0  0  0  0  0  0  0  0  0
  -10.0840  -15.6633   33.4703 H   0  0  0  0  0  0  0  0  0  0  0  0
   -9.4672  -13.5456   33.4508 H   0  0  0  0  0  0  0  0  0  0  0  0
   -9.4436  -18.3072   35.5656 H   0  0  0  0  0  0  0  0  0  0  0  0
   -7.2222  -19.4243   36.4251 H   0  0  0  0  0  0  0  0  0  0  0  0
   -9.5284  -24.4538   32.6092 H   0  0  0  0  0  0  0  0  0  0  0  0
  -10.1156  -21.5240   32.1059 H   0  0  0  0  0  0  0  0  0  0  0  0
   -2.5447  -14.4053   35.2793 H   0  0  0  0  0  0  0  0  0  0  0  0
   -2.4534  -18.0170   33.2045 H   0  0  0  0  0  0  0  0  0  0  0  0
   -4.7238  -17.8533   34.3110 H   0  0  0  0  0  0  0  0  0  0  0  0
  1  2  2  0
  2  3  1  0
  3  4  1  0
  4  5  1  0
  5  6  1  0
  6  7  1  0
  5  8  1  0
  8  9  1  0
  9 10  2  0
  9 11  1  0
 11 12  2  0
 12 13  1  0
 13 14  2  0
 14 15  1  0
 15 16  1  0
 16 17  2  0
 17 18  1  0
  2 19  1  0
 19 20  2  0
 20 21  1  0
 21 22  2  0
 22 23  1  0
 18 11  1  0
 23 19  1  0
 18 14  1  0
  3 24  1  0
  4 25  1  0
  4 26  1  0
  5 27  1  0
  6 28  1  0
  6 29  1  0
  7 30  1  0
  8 31  1  0
 12 32  1  0
 16 33  1  0
 17 34  1  0
 20 35  1  0
 22 36  1  0
 23 37  1  0
M  END
>  <Energy>  (1173) 
127.16928144694781

>  <compound_id>  (1173) 
46120

>  <target_id>  (1173) 
1

>  <reference_id>  (1173) 
116

>  <inspiration_ids>  (1173) 
[116, 52]

>  <energy_score>  (1173) 
122.77905796579898

>  <distance_score>  (1173) 
7.042015395910867

>  <path>  (1173) 
/opt/xchem-fragalysis-2/maxwin/BulkDock/SCRATCH/511022/C46120-P116/C46120-P116.minimised.mol

>  <scratch_subdir>  (1173) 
/opt/xchem-fragalysis-2/maxwin/BulkDock/SCRATCH/511022/C46120-P116

>  <fragmenstein_runtime>  (1173) 
22.21458339691162

>  <fragmenstein_outcome>  (1173) 
too moved

>  <fragmenstein_mode>  (1173) 
expansion

>  <fragmenstein_error>  (1173) 


$$$$
C46120-P52
     RDKit          3D

 37 39  0  0  0  0  0  0  0  0999 V2000
   -7.6280  -17.7857   33.7148 O   0  0  0  0  0  0  0  0  0  0  0  0
   -8.7056  -17.2624   33.6295 C   0  0  0  0  0  0  0  0  0  0  0  0
  -10.0389  -17.8316   33.2350 N   0  0  0  0  0  0  0  0  0  0  0  0
  -10.4203  -19.2192   32.7213 C   0  0  0  0  0  0  0  0  0  0  0  0
  -11.4072  -20.2502   33.3976 C   0  0  0  0  0  0  0  0  0  0  0  0
  -12.8401  -19.8097   33.6847 C   0  0  0  0  0  0  0  0  0  0  0  0
  -13.5288  -20.7718   34.4817 O   0  0  0  0  0  0  0  0  0  0  0  0
  -11.4237  -21.4555   32.5609 N   0  0  0  0  0  0  0  0  0  0  0  0
  -11.6732  -21.6240   31.1678 C   0  0  0  0  0  0  0  0  0  0  0  0
  -12.0107  -20.8367   30.3372 O   0  0  0  0  0  0  0  0  0  0  0  0
  -11.4358  -22.9883   30.7306 C   0  0  0  0  0  0  0  0  0  0  0  0
  -11.0729  -24.1564   31.3992 C   0  0  0  0  0  0  0  0  0  0  0  0
  -11.1148  -25.2694   30.5870 N   0  0  0  0  0  0  0  0  0  0  0  0
  -11.3748  -24.7613   29.4187 C   0  0  0  0  0  0  0  0  0  0  0  0
  -11.5247  -25.4170   27.8183 S   0  0  0  0  0  0  0  0  0  0  0  0
  -11.7421  -23.7726   27.2048 C   0  0  0  0  0  0  0  0  0  0  0  0
  -11.7186  -22.8458   28.1775 C   0  0  0  0  0  0  0  0  0  0  0  0
  -11.5277  -23.4088   29.4233 N   0  0  0  0  0  0  0  0  0  0  0  0
   -8.6645  -15.7878   33.8713 C   0  0  0  0  0  0  0  0  0  0  0  0
   -9.5503  -14.8013   34.2549 C   0  0  0  0  0  0  0  0  0  0  0  0
   -8.9356  -13.5783   34.3700 N   0  0  0  0  0  0  0  0  0  0  0  0
   -7.6793  -13.8034   34.0867 C   0  0  0  0  0  0  0  0  0  0  0  0
   -7.4826  -15.0921   33.7093 N   0  0  0  0  0  0  0  0  0  0  0  0
  -10.7566  -17.1181   33.3547 H   0  0  0  0  0  0  0  0  0  0  0  0
   -9.4724  -19.7376   32.6146 H   0  0  0  0  0  0  0  0  0  0  0  0
  -10.6982  -19.1431   31.6829 H   0  0  0  0  0  0  0  0  0  0  0  0
  -11.0182  -20.6280   34.3383 H   0  0  0  0  0  0  0  0  0  0  0  0
  -12.8499  -18.8665   34.2375 H   0  0  0  0  0  0  0  0  0  0  0  0
  -13.4393  -19.7273   32.7830 H   0  0  0  0  0  0  0  0  0  0  0  0
  -13.7460  -21.5463   33.9241 H   0  0  0  0  0  0  0  0  0  0  0  0
  -11.0740  -22.3237   32.9396 H   0  0  0  0  0  0  0  0  0  0  0  0
  -10.8139  -24.2764   32.4433 H   0  0  0  0  0  0  0  0  0  0  0  0
  -11.8773  -23.5705   26.1493 H   0  0  0  0  0  0  0  0  0  0  0  0
  -11.8186  -21.7784   28.0526 H   0  0  0  0  0  0  0  0  0  0  0  0
  -10.6030  -14.9022   34.4848 H   0  0  0  0  0  0  0  0  0  0  0  0
   -6.8868  -13.0729   34.1513 H   0  0  0  0  0  0  0  0  0  0  0  0
   -6.6306  -15.5198   33.3794 H   0  0  0  0  0  0  0  0  0  0  0  0
  1  2  2  0
  2  3  1  0
  3  4  1  0
  4  5  1  0
  5  6  1  0
  6  7  1  0
  5  8  1  0
  8  9  1  0
  9 10  2  0
  9 11  1  0
 11 12  2  0
 12 13  1  0
 13 14  2  0
 14 15  1  0
 15 16  1  0
 16 17  2  0
 17 18  1  0
  2 19  1  0
 19 20  2  0
 20 21  1  0
 21 22  2  0
 22 23  1  0
 18 11  1  0
 23 19  1  0
 18 14  1  0
  3 24  1  0
  4 25  1  0
  4 26  1  0
  5 27  1  0
  6 28  1  0
  6 29  1  0
  7 30  1  0
  8 31  1  0
 12 32  1  0
 16 33  1  0
 17 34  1  0
 20 35  1  0
 22 36  1  0
 23 37  1  0
M  END
>  <Energy>  (1174) 
-0.27850759040581341

>  <compound_id>  (1174) 
46120

>  <target_id>  (1174) 
1

>  <reference_id>  (1174) 
52

>  <inspiration_ids>  (1174) 
[116, 52]

>  <energy_score>  (1174) 
-4.6687310715577155

>  <distance_score>  (1174) 
6.822728108257327

>  <path>  (1174) 
/opt/xchem-fragalysis-2/maxwin/BulkDock/SCRATCH/511022/C46120-P52/C46120-P52.minimised.mol

>  <scratch_subdir>  (1174) 
/opt/xchem-fragalysis-2/maxwin/BulkDock/SCRATCH/511022/C46120-P52

>  <fragmenstein_runtime>  (1174) 
23.941802501678467

>  <fragmenstein_outcome>  (1174) 
too moved

>  <fragmenstein_mode>  (1174) 
expansion

>  <fragmenstein_error>  (1174) 


$$$$
C46121-P52
     RDKit          2D

  0  0  0  0  0  0  0  0  0  0999 V2000
M  END
>  <compound_id>  (1175) 
46121

>  <target_id>  (1175) 
1

>  <reference_id>  (1175) 
52

>  <inspiration_ids>  (1175) 
[116, 52]

>  <energy_score>  (1175) 
nan

>  <distance_score>  (1175) 
nan

>  <path>  (1175) 
/opt/xchem-fragalysis-2/maxwin/BulkDock/SCRATCH/511022/C46121-P52/C46121-P52.minimised.mol

>  <scratch_subdir>  (1175) 
/opt/xchem-fragalysis-2/maxwin/BulkDock/SCRATCH/511022/C46121-P52

>  <fragmenstein_runtime>  (1175) 
1.0259735584259033

>  <fragmenstein_outcome>  (1175) 
too distant

>  <fragmenstein_mode>  (1175) 
expansion

>  <fragmenstein_error>  (1175) 
DistanceError: hit1

$$$$
C46122-P52
     RDKit          2D

  0  0  0  0  0  0  0  0  0  0999 V2000
M  END
>  <compound_id>  (1176) 
46122

>  <target_id>  (1176) 
1

>  <reference_id>  (1176) 
52

>  <inspiration_ids>  (1176) 
[116, 52]

>  <energy_score>  (1176) 
nan

>  <distance_score>  (1176) 
nan

>  <path>  (1176) 
/opt/xchem-fragalysis-2/maxwin/BulkDock/SCRATCH/511022/C46122-P52/C46122-P52.minimised.mol

>  <scratch_subdir>  (1176) 
/opt/xchem-fragalysis-2/maxwin/BulkDock/SCRATCH/511022/C46122-P52

>  <fragmenstein_runtime>  (1176) 
1.0548081398010254

>  <fragmenstein_outcome>  (1176) 
too distant

>  <fragmenstein_mode>  (1176) 
expansion

>  <fragmenstein_error>  (1176) 
DistanceError: hit1

$$$$
C46124-P52
     RDKit          2D

  0  0  0  0  0  0  0  0  0  0999 V2000
M  END
>  <compound_id>  (1177) 
46124

>  <target_id>  (1177) 
1

>  <reference_id>  (1177) 
52

>  <inspiration_ids>  (1177) 
[116, 52]

>  <energy_score>  (1177) 
nan

>  <distance_score>  (1177) 
nan

>  <path>  (1177) 
/opt/xchem-fragalysis-2/maxwin/BulkDock/SCRATCH/511022/C46124-P52/C46124-P52.minimised.mol

>  <scratch_subdir>  (1177) 
/opt/xchem-fragalysis-2/maxwin/BulkDock/SCRATCH/511022/C46124-P52

>  <fragmenstein_runtime>  (1177) 
0.4522852897644043

>  <fragmenstein_outcome>  (1177) 
too distant

>  <fragmenstein_mode>  (1177) 
expansion

>  <fragmenstein_error>  (1177) 
DistanceError: hit1

$$$$
C46125-P116
     RDKit          3D

 42 45  0  0  0  0  0  0  0  0999 V2000
  -11.4957  -21.2981   26.5178 C   0  0  0  0  0  0  0  0  0  0  0  0
  -10.0414  -20.8199   27.7159 C   0  0  0  0  0  0  0  0  0  0  0  0
   -8.6878  -19.7126   28.2833 N   0  0  0  0  0  0  0  0  0  0  0  0
   -8.3261  -18.0846   27.9709 C   0  0  0  0  0  0  0  0  0  0  0  0
   -8.9681  -17.2339   27.3830 O   0  0  0  0  0  0  0  0  0  0  0  0
   -6.3743  -17.7684   28.6049 C   0  0  0  0  0  0  0  0  0  0  0  0
   -4.4121  -17.3405   27.9230 C   0  0  0  0  0  0  0  0  0  0  0  0
   -4.0315  -16.2645   28.5504 C   0  0  0  0  0  0  0  0  0  0  0  0
   -2.5551  -15.7216   28.3798 N   0  0  0  0  0  0  0  0  0  0  0  0
   -1.6810  -14.8290   29.0113 C   0  0  0  0  0  0  0  0  0  0  0  0
   -1.2770  -13.8461   28.2158 C   0  0  0  0  0  0  0  0  0  0  0  0
   -2.1087  -14.0687   26.7063 S   0  0  0  0  0  0  0  0  0  0  0  0
   -2.1903  -16.1621   27.1807 C   0  0  0  0  0  0  0  0  0  0  0  0
   -3.0326  -17.2727   26.9995 N   0  0  0  0  0  0  0  0  0  0  0  0
  -10.4870  -21.9909   28.3998 C   0  0  0  0  0  0  0  0  0  0  0  0
  -10.5531  -23.3034   27.9601 C   0  0  0  0  0  0  0  0  0  0  0  0
  -11.8262  -23.5259   28.1401 C   0  0  0  0  0  0  0  0  0  0  0  0
  -12.2944  -22.7556   29.2343 C   0  0  0  0  0  0  0  0  0  0  0  0
  -11.3897  -22.8219   30.4638 N   0  0  0  0  0  0  0  0  0  0  0  0
  -10.6211  -24.0111   31.2090 C   0  0  0  0  0  0  0  0  0  0  0  0
  -10.4633  -23.8751   32.4544 C   0  0  0  0  0  0  0  0  0  0  0  0
  -11.0769  -22.7347   32.4268 N   0  0  0  0  0  0  0  0  0  0  0  0
  -11.7604  -22.2053   31.4556 C   0  0  0  0  0  0  0  0  0  0  0  0
  -12.6909  -21.5195   29.1393 C   0  0  0  0  0  0  0  0  0  0  0  0
  -11.4554  -21.1762   29.0956 C   0  0  0  0  0  0  0  0  0  0  0  0
  -12.4294  -21.1510   27.0145 H   0  0  0  0  0  0  0  0  0  0  0  0
  -11.6420  -22.3605   26.2729 H   0  0  0  0  0  0  0  0  0  0  0  0
  -11.6922  -20.8337   25.5355 H   0  0  0  0  0  0  0  0  0  0  0  0
   -8.9902  -21.2194   27.5428 H   0  0  0  0  0  0  0  0  0  0  0  0
   -7.9603  -20.1267   28.6925 H   0  0  0  0  0  0  0  0  0  0  0  0
   -5.8980  -18.5034   27.8957 H   0  0  0  0  0  0  0  0  0  0  0  0
   -6.3200  -17.9985   29.6601 H   0  0  0  0  0  0  0  0  0  0  0  0
   -4.5555  -16.1641   29.5476 H   0  0  0  0  0  0  0  0  0  0  0  0
   -1.2698  -15.0554   29.9810 H   0  0  0  0  0  0  0  0  0  0  0  0
   -0.5629  -13.0616   28.4155 H   0  0  0  0  0  0  0  0  0  0  0  0
   -9.9447  -23.7922   27.2201 H   0  0  0  0  0  0  0  0  0  0  0  0
  -12.4547  -23.9785   27.3868 H   0  0  0  0  0  0  0  0  0  0  0  0
   -9.6471  -24.3575   30.9200 H   0  0  0  0  0  0  0  0  0  0  0  0
   -9.6803  -24.3140   33.0214 H   0  0  0  0  0  0  0  0  0  0  0  0
  -12.4515  -21.3741   31.4316 H   0  0  0  0  0  0  0  0  0  0  0  0
  -13.3267  -20.9946   29.8072 H   0  0  0  0  0  0  0  0  0  0  0  0
  -11.0553  -20.3787   29.6276 H   0  0  0  0  0  0  0  0  0  0  0  0
  1  2  1  0
  2  3  1  0
  3  4  1  0
  4  5  2  0
  4  6  1  0
  6  7  1  0
  7  8  2  0
  8  9  1  0
  9 10  1  0
 10 11  2  0
 11 12  1  0
 12 13  1  0
 13 14  2  0
  2 15  1  0
 15 16  2  0
 16 17  1  0
 17 18  2  0
 18 19  1  0
 19 20  1  0
 20 21  2  0
 21 22  1  0
 22 23  2  0
 18 24  1  0
 24 25  2  0
 14  7  1  0
 25 15  1  0
 13  9  1  0
 23 19  1  0
  1 26  1  0
  1 27  1  0
  1 28  1  0
  2 29  1  0
  3 30  1  0
  6 31  1  0
  6 32  1  0
  8 33  1  0
 10 34  1  0
 11 35  1  0
 16 36  1  0
 17 37  1  0
 20 38  1  0
 21 39  1  0
 23 40  1  0
 24 41  1  0
 25 42  1  0
M  END
>  <Energy>  (1178) 
1139.4359285674379

>  <compound_id>  (1178) 
46125

>  <target_id>  (1178) 
1

>  <reference_id>  (1178) 
116

>  <inspiration_ids>  (1178) 
[116, 52]

>  <energy_score>  (1178) 
1028.178845558687

>  <distance_score>  (1178) 
3.2994483658658718

>  <path>  (1178) 
/opt/xchem-fragalysis-2/maxwin/BulkDock/SCRATCH/511022/C46125-P116/C46125-P116.minimised.mol

>  <scratch_subdir>  (1178) 
/opt/xchem-fragalysis-2/maxwin/BulkDock/SCRATCH/511022/C46125-P116

>  <fragmenstein_runtime>  (1178) 
32.82863664627075

>  <fragmenstein_outcome>  (1178) 
too moved

>  <fragmenstein_mode>  (1178) 
expansion

>  <fragmenstein_error>  (1178) 


$$$$
C46125-P52
     RDKit          3D

 42 45  0  0  0  0  0  0  0  0999 V2000
   -5.6110  -19.7017   27.3407 C   0  0  0  0  0  0  0  0  0  0  0  0
   -4.8854  -20.5391   26.4320 C   0  0  0  0  0  0  0  0  0  0  0  0
   -4.0621  -18.9526   25.7937 N   0  0  0  0  0  0  0  0  0  0  0  0
   -2.3749  -18.1050   26.3137 C   0  0  0  0  0  0  0  0  0  0  0  0
   -1.5615  -18.5937   27.1133 O   0  0  0  0  0  0  0  0  0  0  0  0
   -1.9298  -16.7805   25.9431 C   0  0  0  0  0  0  0  0  0  0  0  0
   -2.5017  -15.5315   26.4957 C   0  0  0  0  0  0  0  0  0  0  0  0
   -2.2412  -14.1160   26.7318 C   0  0  0  0  0  0  0  0  0  0  0  0
   -2.5269  -13.4652   25.4614 N   0  0  0  0  0  0  0  0  0  0  0  0
   -1.9844  -12.6707   24.5796 C   0  0  0  0  0  0  0  0  0  0  0  0
   -1.5339  -13.5355   23.5968 C   0  0  0  0  0  0  0  0  0  0  0  0
   -3.4739  -14.2825   23.2099 S   0  0  0  0  0  0  0  0  0  0  0  0
   -2.9603  -14.4953   24.6743 C   0  0  0  0  0  0  0  0  0  0  0  0
   -3.0459  -15.5461   25.3042 N   0  0  0  0  0  0  0  0  0  0  0  0
   -6.3322  -21.7727   26.8303 C   0  0  0  0  0  0  0  0  0  0  0  0
   -7.2106  -22.5250   26.0599 C   0  0  0  0  0  0  0  0  0  0  0  0
   -8.8771  -23.0960   26.5570 C   0  0  0  0  0  0  0  0  0  0  0  0
   -9.5459  -22.8768   27.7171 C   0  0  0  0  0  0  0  0  0  0  0  0
  -10.8154  -23.2140   28.1806 N   0  0  0  0  0  0  0  0  0  0  0  0
  -11.3531  -22.7983   29.3775 C   0  0  0  0  0  0  0  0  0  0  0  0
  -12.6113  -23.3203   29.4286 C   0  0  0  0  0  0  0  0  0  0  0  0
  -12.8542  -24.1072   28.3433 N   0  0  0  0  0  0  0  0  0  0  0  0
  -11.7609  -24.0233   27.6075 C   0  0  0  0  0  0  0  0  0  0  0  0
   -8.7787  -21.9553   28.2968 C   0  0  0  0  0  0  0  0  0  0  0  0
   -7.3211  -21.5356   27.8272 C   0  0  0  0  0  0  0  0  0  0  0  0
   -5.5684  -18.7046   26.9251 H   0  0  0  0  0  0  0  0  0  0  0  0
   -6.7037  -19.5513   27.4931 H   0  0  0  0  0  0  0  0  0  0  0  0
   -5.1824  -20.2350   28.1573 H   0  0  0  0  0  0  0  0  0  0  0  0
   -4.9544  -20.6661   25.3480 H   0  0  0  0  0  0  0  0  0  0  0  0
   -4.5032  -18.4113   25.0811 H   0  0  0  0  0  0  0  0  0  0  0  0
   -0.8714  -16.7001   26.2028 H   0  0  0  0  0  0  0  0  0  0  0  0
   -1.9221  -16.9296   24.9226 H   0  0  0  0  0  0  0  0  0  0  0  0
   -1.7442  -13.5165   27.4694 H   0  0  0  0  0  0  0  0  0  0  0  0
   -2.4207  -11.6889   24.4778 H   0  0  0  0  0  0  0  0  0  0  0  0
   -1.0173  -13.1485   22.7240 H   0  0  0  0  0  0  0  0  0  0  0  0
   -6.9120  -22.8857   25.0555 H   0  0  0  0  0  0  0  0  0  0  0  0
   -9.4795  -23.5300   25.7224 H   0  0  0  0  0  0  0  0  0  0  0  0
  -10.8425  -22.1661   30.0844 H   0  0  0  0  0  0  0  0  0  0  0  0
  -13.3344  -23.1344   30.2038 H   0  0  0  0  0  0  0  0  0  0  0  0
  -11.6059  -24.5206   26.6596 H   0  0  0  0  0  0  0  0  0  0  0  0
   -9.3706  -21.2012   28.8082 H   0  0  0  0  0  0  0  0  0  0  0  0
   -6.9590  -20.8727   28.5078 H   0  0  0  0  0  0  0  0  0  0  0  0
  1  2  1  0
  2  3  1  0
  3  4  1  0
  4  5  2  0
  4  6  1  0
  6  7  1  0
  7  8  2  0
  8  9  1  0
  9 10  1  0
 10 11  2  0
 11 12  1  0
 12 13  1  0
 13 14  2  0
  2 15  1  0
 15 16  2  0
 16 17  1  0
 17 18  2  0
 18 19  1  0
 19 20  1  0
 20 21  2  0
 21 22  1  0
 22 23  2  0
 18 24  1  0
 24 25  2  0
 14  7  1  0
 25 15  1  0
 13  9  1  0
 23 19  1  0
  1 26  1  0
  1 27  1  0
  1 28  1  0
  2 29  1  0
  3 30  1  0
  6 31  1  0
  6 32  1  0
  8 33  1  0
 10 34  1  0
 11 35  1  0
 16 36  1  0
 17 37  1  0
 20 38  1  0
 21 39  1  0
 23 40  1  0
 24 41  1  0
 25 42  1  0
M  END
>  <Energy>  (1179) 
815.83948564171999

>  <compound_id>  (1179) 
46125

>  <target_id>  (1179) 
1

>  <reference_id>  (1179) 
52

>  <inspiration_ids>  (1179) 
[116, 52]

>  <energy_score>  (1179) 
704.5824026329577

>  <distance_score>  (1179) 
4.643059802282489

>  <path>  (1179) 
/opt/xchem-fragalysis-2/maxwin/BulkDock/SCRATCH/511022/C46125-P52/C46125-P52.minimised.mol

>  <scratch_subdir>  (1179) 
/opt/xchem-fragalysis-2/maxwin/BulkDock/SCRATCH/511022/C46125-P52

>  <fragmenstein_runtime>  (1179) 
25.24978232383728

>  <fragmenstein_outcome>  (1179) 
too moved

>  <fragmenstein_mode>  (1179) 
expansion

>  <fragmenstein_error>  (1179) 


$$$$
C46126-P116
     RDKit          3D

 42 44  0  0  0  0  0  0  0  0999 V2000
   -7.5682  -21.6213   27.6436 O   0  0  0  0  0  0  0  0  0  0  0  0
   -8.4058  -20.7297   27.7324 C   0  0  0  0  0  0  0  0  0  0  0  0
  -10.2429  -21.2474   27.7084 C   0  0  0  0  0  0  0  0  0  0  0  0
  -11.7031  -21.7534   26.8969 C   0  0  0  0  0  0  0  0  0  0  0  0
  -11.8497  -23.5012   26.8225 S   0  0  0  0  0  0  0  0  0  0  0  0
  -11.0044  -23.4396   28.3631 C   0  0  0  0  0  0  0  0  0  0  0  0
  -11.6851  -22.3394   29.3127 C   0  0  0  0  0  0  0  0  0  0  0  0
  -12.7145  -22.4184   30.1520 C   0  0  0  0  0  0  0  0  0  0  0  0
  -11.7954  -22.7302   31.1839 N   0  0  0  0  0  0  0  0  0  0  0  0
  -11.0536  -24.0087   31.7352 C   0  0  0  0  0  0  0  0  0  0  0  0
   -9.8597  -24.4133   32.1094 C   0  0  0  0  0  0  0  0  0  0  0  0
   -9.4658  -23.2902   32.6821 C   0  0  0  0  0  0  0  0  0  0  0  0
   -9.9913  -21.9026   32.3194 C   0  0  0  0  0  0  0  0  0  0  0  0
  -11.1179  -21.6000   31.1363 C   0  0  0  0  0  0  0  0  0  0  0  0
  -11.2398  -21.1821   29.9441 N   0  0  0  0  0  0  0  0  0  0  0  0
   -8.1986  -18.7866   28.0344 N   0  0  0  0  0  0  0  0  0  0  0  0
   -6.4762  -17.8025   28.4271 C   0  0  0  0  0  0  0  0  0  0  0  0
   -4.4326  -17.3815   27.9174 C   0  0  0  0  0  0  0  0  0  0  0  0
   -2.9700  -16.6125   27.8705 N   0  0  0  0  0  0  0  0  0  0  0  0
   -2.4045  -15.4322   28.5537 C   0  0  0  0  0  0  0  0  0  0  0  0
   -1.8238  -14.6366   27.6694 C   0  0  0  0  0  0  0  0  0  0  0  0
   -2.1604  -15.2920   26.5618 N   0  0  0  0  0  0  0  0  0  0  0  0
   -2.1873  -16.6143   26.7922 C   0  0  0  0  0  0  0  0  0  0  0  0
  -10.4453  -20.8113   28.5864 H   0  0  0  0  0  0  0  0  0  0  0  0
  -10.2421  -20.6864   26.8563 H   0  0  0  0  0  0  0  0  0  0  0  0
  -11.9344  -21.3119   25.9244 H   0  0  0  0  0  0  0  0  0  0  0  0
  -12.5252  -21.3991   27.5057 H   0  0  0  0  0  0  0  0  0  0  0  0
   -9.9611  -23.2556   28.1295 H   0  0  0  0  0  0  0  0  0  0  0  0
  -10.8901  -24.4529   28.6625 H   0  0  0  0  0  0  0  0  0  0  0  0
  -13.4232  -21.6223   30.3384 H   0  0  0  0  0  0  0  0  0  0  0  0
  -11.4195  -24.5293   32.5532 H   0  0  0  0  0  0  0  0  0  0  0  0
   -9.5261  -25.3233   32.5626 H   0  0  0  0  0  0  0  0  0  0  0  0
   -8.6253  -23.4978   33.3454 H   0  0  0  0  0  0  0  0  0  0  0  0
  -10.8193  -22.4470   32.6651 H   0  0  0  0  0  0  0  0  0  0  0  0
   -9.0788  -18.3041   27.9772 H   0  0  0  0  0  0  0  0  0  0  0  0
   -5.9026  -18.5525   27.8058 H   0  0  0  0  0  0  0  0  0  0  0  0
   -6.3816  -18.0243   29.4886 H   0  0  0  0  0  0  0  0  0  0  0  0
   -4.5371  -16.7112   28.8085 H   0  0  0  0  0  0  0  0  0  0  0  0
   -3.8952  -18.3193   27.8907 H   0  0  0  0  0  0  0  0  0  0  0  0
   -2.6892  -15.1514   29.5282 H   0  0  0  0  0  0  0  0  0  0  0  0
   -1.4374  -13.6279   27.7174 H   0  0  0  0  0  0  0  0  0  0  0  0
   -2.0490  -17.4274   26.0987 H   0  0  0  0  0  0  0  0  0  0  0  0
  1  2  2  0
  2  3  1  0
  3  4  1  0
  4  5  1  0
  5  6  1  0
  6  7  1  0
  7  8  2  0
  8  9  1  0
  9 10  1  0
 10 11  2  0
 11 12  1  0
 12 13  2  0
 13 14  1  0
 14 15  2  0
  2 16  1  0
 16 17  1  0
 17 18  1  0
 18 19  1  0
 19 20  1  0
 20 21  2  0
 21 22  1  0
 22 23  2  0
 15  7  1  0
 23 19  1  0
 14  9  1  0
  3 24  1  0
  3 25  1  0
  4 26  1  0
  4 27  1  0
  6 28  1  0
  6 29  1  0
  8 30  1  0
 10 31  1  0
 11 32  1  0
 12 33  1  0
 13 34  1  0
 16 35  1  0
 17 36  1  0
 17 37  1  0
 18 38  1  0
 18 39  1  0
 20 40  1  0
 21 41  1  0
 23 42  1  0
M  END
>  <Energy>  (1180) 
1071.3421954546181

>  <compound_id>  (1180) 
46126

>  <target_id>  (1180) 
1

>  <reference_id>  (1180) 
116

>  <inspiration_ids>  (1180) 
[116, 52]

>  <energy_score>  (1180) 
1000.6651559494283

>  <distance_score>  (1180) 
2.719210905414656

>  <path>  (1180) 
/opt/xchem-fragalysis-2/maxwin/BulkDock/SCRATCH/511022/C46126-P116/C46126-P116.minimised.mol

>  <scratch_subdir>  (1180) 
/opt/xchem-fragalysis-2/maxwin/BulkDock/SCRATCH/511022/C46126-P116

>  <fragmenstein_runtime>  (1180) 
18.73097038269043

>  <fragmenstein_outcome>  (1180) 
too moved

>  <fragmenstein_mode>  (1180) 
expansion

>  <fragmenstein_error>  (1180) 


$$$$
C46126-P52
     RDKit          3D

 42 44  0  0  0  0  0  0  0  0999 V2000
   -9.3353  -20.9853   28.7198 O   0  0  0  0  0  0  0  0  0  0  0  0
   -8.6089  -21.7095   28.0641 C   0  0  0  0  0  0  0  0  0  0  0  0
   -9.3810  -22.9939   27.6547 C   0  0  0  0  0  0  0  0  0  0  0  0
   -9.5926  -24.0600   28.7157 C   0  0  0  0  0  0  0  0  0  0  0  0
  -11.0904  -25.0515   28.3943 S   0  0  0  0  0  0  0  0  0  0  0  0
  -12.3507  -23.8083   28.7768 C   0  0  0  0  0  0  0  0  0  0  0  0
  -12.2253  -23.1895   30.1208 C   0  0  0  0  0  0  0  0  0  0  0  0
  -11.4921  -23.5694   31.2302 C   0  0  0  0  0  0  0  0  0  0  0  0
  -11.7859  -22.6597   32.2050 N   0  0  0  0  0  0  0  0  0  0  0  0
  -11.3005  -22.5743   33.5015 C   0  0  0  0  0  0  0  0  0  0  0  0
  -11.8461  -21.6699   34.3264 C   0  0  0  0  0  0  0  0  0  0  0  0
  -12.9259  -20.8303   33.8463 C   0  0  0  0  0  0  0  0  0  0  0  0
  -13.3743  -20.9210   32.5836 C   0  0  0  0  0  0  0  0  0  0  0  0
  -12.7634  -21.8282   31.6830 C   0  0  0  0  0  0  0  0  0  0  0  0
  -12.9917  -22.0872   30.4138 N   0  0  0  0  0  0  0  0  0  0  0  0
   -7.0477  -21.4522   27.4924 N   0  0  0  0  0  0  0  0  0  0  0  0
   -5.9572  -19.9976   27.6257 C   0  0  0  0  0  0  0  0  0  0  0  0
   -5.2531  -18.3051   26.7430 C   0  0  0  0  0  0  0  0  0  0  0  0
   -3.5894  -17.1079   27.1684 N   0  0  0  0  0  0  0  0  0  0  0  0
   -3.2037  -15.7032   26.9431 C   0  0  0  0  0  0  0  0  0  0  0  0
   -2.6216  -15.7232   25.7355 C   0  0  0  0  0  0  0  0  0  0  0  0
   -1.6994  -16.6566   25.6201 N   0  0  0  0  0  0  0  0  0  0  0  0
   -2.1814  -17.5550   26.3772 C   0  0  0  0  0  0  0  0  0  0  0  0
  -10.3818  -22.5724   27.4640 H   0  0  0  0  0  0  0  0  0  0  0  0
   -9.1671  -23.3083   26.6523 H   0  0  0  0  0  0  0  0  0  0  0  0
   -9.5773  -23.6128   29.7069 H   0  0  0  0  0  0  0  0  0  0  0  0
   -8.7968  -24.8035   28.7577 H   0  0  0  0  0  0  0  0  0  0  0  0
  -13.3196  -24.3152   28.7183 H   0  0  0  0  0  0  0  0  0  0  0  0
  -12.3573  -23.0377   28.0020 H   0  0  0  0  0  0  0  0  0  0  0  0
  -10.8138  -24.3891   31.4170 H   0  0  0  0  0  0  0  0  0  0  0  0
  -10.5235  -23.2638   33.8021 H   0  0  0  0  0  0  0  0  0  0  0  0
  -11.5530  -21.5867   35.3632 H   0  0  0  0  0  0  0  0  0  0  0  0
  -13.4107  -20.1668   34.5528 H   0  0  0  0  0  0  0  0  0  0  0  0
  -14.2413  -20.3654   32.2530 H   0  0  0  0  0  0  0  0  0  0  0  0
   -6.7657  -22.2214   26.9115 H   0  0  0  0  0  0  0  0  0  0  0  0
   -5.1438  -20.6431   27.8929 H   0  0  0  0  0  0  0  0  0  0  0  0
   -6.9414  -19.5766   27.7546 H   0  0  0  0  0  0  0  0  0  0  0  0
   -4.7251  -19.0715   25.9913 H   0  0  0  0  0  0  0  0  0  0  0  0
   -5.6248  -18.1420   25.7653 H   0  0  0  0  0  0  0  0  0  0  0  0
   -3.7124  -14.9633   27.5184 H   0  0  0  0  0  0  0  0  0  0  0  0
   -2.8463  -15.0653   24.8876 H   0  0  0  0  0  0  0  0  0  0  0  0
   -1.6506  -18.3621   26.8184 H   0  0  0  0  0  0  0  0  0  0  0  0
  1  2  2  0
  2  3  1  0
  3  4  1  0
  4  5  1  0
  5  6  1  0
  6  7  1  0
  7  8  2  0
  8  9  1  0
  9 10  1  0
 10 11  2  0
 11 12  1  0
 12 13  2  0
 13 14  1  0
 14 15  2  0
  2 16  1  0
 16 17  1  0
 17 18  1  0
 18 19  1  0
 19 20  1  0
 20 21  2  0
 21 22  1  0
 22 23  2  0
 15  7  1  0
 23 19  1  0
 14  9  1  0
  3 24  1  0
  3 25  1  0
  4 26  1  0
  4 27  1  0
  6 28  1  0
  6 29  1  0
  8 30  1  0
 10 31  1  0
 11 32  1  0
 12 33  1  0
 13 34  1  0
 16 35  1  0
 17 36  1  0
 17 37  1  0
 18 38  1  0
 18 39  1  0
 20 40  1  0
 21 41  1  0
 23 42  1  0
M  END
>  <Energy>  (1181) 
489.30189191776549

>  <compound_id>  (1181) 
46126

>  <target_id>  (1181) 
1

>  <reference_id>  (1181) 
52

>  <inspiration_ids>  (1181) 
[116, 52]

>  <energy_score>  (1181) 
418.6248524125858

>  <distance_score>  (1181) 
3.663078041079301

>  <path>  (1181) 
/opt/xchem-fragalysis-2/maxwin/BulkDock/SCRATCH/511022/C46126-P52/C46126-P52.minimised.mol

>  <scratch_subdir>  (1181) 
/opt/xchem-fragalysis-2/maxwin/BulkDock/SCRATCH/511022/C46126-P52

>  <fragmenstein_runtime>  (1181) 
20.44453716278076

>  <fragmenstein_outcome>  (1181) 
too moved

>  <fragmenstein_mode>  (1181) 
expansion

>  <fragmenstein_error>  (1181) 


$$$$
C46127-P52
     RDKit          2D

  0  0  0  0  0  0  0  0  0  0999 V2000
M  END
>  <compound_id>  (1182) 
46127

>  <target_id>  (1182) 
1

>  <reference_id>  (1182) 
52

>  <inspiration_ids>  (1182) 
[116, 52]

>  <energy_score>  (1182) 
nan

>  <distance_score>  (1182) 
nan

>  <path>  (1182) 
/opt/xchem-fragalysis-2/maxwin/BulkDock/SCRATCH/511022/C46127-P52/C46127-P52.minimised.mol

>  <scratch_subdir>  (1182) 
/opt/xchem-fragalysis-2/maxwin/BulkDock/SCRATCH/511022/C46127-P52

>  <fragmenstein_runtime>  (1182) 
3.6456830501556396

>  <fragmenstein_outcome>  (1182) 
too distant

>  <fragmenstein_mode>  (1182) 
expansion

>  <fragmenstein_error>  (1182) 
DistanceError: hit1

$$$$
C46132-P52
     RDKit          2D

  0  0  0  0  0  0  0  0  0  0999 V2000
M  END
>  <compound_id>  (1183) 
46132

>  <target_id>  (1183) 
1

>  <reference_id>  (1183) 
52

>  <inspiration_ids>  (1183) 
[116, 52]

>  <energy_score>  (1183) 
nan

>  <distance_score>  (1183) 
nan

>  <path>  (1183) 
/opt/xchem-fragalysis-2/maxwin/BulkDock/SCRATCH/511022/C46132-P52/C46132-P52.minimised.mol

>  <scratch_subdir>  (1183) 
/opt/xchem-fragalysis-2/maxwin/BulkDock/SCRATCH/511022/C46132-P52

>  <fragmenstein_runtime>  (1183) 
0.32565927505493164

>  <fragmenstein_outcome>  (1183) 
too distant

>  <fragmenstein_mode>  (1183) 
expansion

>  <fragmenstein_error>  (1183) 
DistanceError: hit0

$$$$
C46135-P52
     RDKit          2D

  0  0  0  0  0  0  0  0  0  0999 V2000
M  END
>  <compound_id>  (1184) 
46135

>  <target_id>  (1184) 
1

>  <reference_id>  (1184) 
52

>  <inspiration_ids>  (1184) 
[116, 52]

>  <energy_score>  (1184) 
nan

>  <distance_score>  (1184) 
nan

>  <path>  (1184) 
/opt/xchem-fragalysis-2/maxwin/BulkDock/SCRATCH/511022/C46135-P52/C46135-P52.minimised.mol

>  <scratch_subdir>  (1184) 
/opt/xchem-fragalysis-2/maxwin/BulkDock/SCRATCH/511022/C46135-P52

>  <fragmenstein_runtime>  (1184) 
0.5075736045837402

>  <fragmenstein_outcome>  (1184) 
too distant

>  <fragmenstein_mode>  (1184) 
expansion

>  <fragmenstein_error>  (1184) 
DistanceError: hit1

$$$$
C57856-P44
     RDKit          3D

 40 42  0  0  0  0  0  0  0  0999 V2000
    3.1091  -19.4781   34.1130 C   0  0  0  0  0  0  0  0  0  0  0  0
    2.4613  -18.2455   33.5525 C   0  0  0  0  0  0  0  0  0  0  0  0
    3.0918  -17.5685   32.5246 C   0  0  0  0  0  0  0  0  0  0  0  0
    2.4687  -16.4619   31.9567 C   0  0  0  0  0  0  0  0  0  0  0  0
    1.2396  -16.0045   32.4061 C   0  0  0  0  0  0  0  0  0  0  0  0
    0.5809  -16.6536   33.4331 C   0  0  0  0  0  0  0  0  0  0  0  0
    1.2059  -17.7703   34.0078 C   0  0  0  0  0  0  0  0  0  0  0  0
   -0.6741  -16.0939   33.9407 C   0  0  0  0  0  0  0  0  0  0  0  0
   -1.1346  -14.9486   33.4018 C   0  0  0  0  0  0  0  0  0  0  0  0
   -2.3937  -14.3329   33.9472 C   0  0  0  0  0  0  0  0  0  0  0  0
   -3.3237  -15.0743   34.2345 O   0  0  0  0  0  0  0  0  0  0  0  0
   -2.3802  -12.9583   34.1854 N   0  0  0  0  0  0  0  0  0  0  0  0
   -2.7640  -11.8172   33.4952 C   0  0  0  0  0  0  0  0  0  0  0  0
   -2.7406  -10.1016   33.9460 C   0  0  0  0  0  0  0  0  0  0  0  0
   -2.8790   -9.2611   32.6818 C   0  0  0  0  0  0  0  0  0  0  0  0
   -2.0326   -9.7613   31.6045 N   0  0  0  0  0  0  0  0  0  0  0  0
   -2.1373  -11.2315   31.4357 C   0  0  0  0  0  0  0  0  0  0  0  0
   -3.0801  -12.1125   32.6379 C   0  0  0  0  0  0  0  0  0  0  0  0
   -0.4448  -14.3145   32.2529 C   0  0  0  0  0  0  0  0  0  0  0  0
    0.7859  -14.8808   31.7986 O   0  0  0  0  0  0  0  0  0  0  0  0
    3.1217  -20.2703   33.3614 H   0  0  0  0  0  0  0  0  0  0  0  0
    2.5713  -19.8469   34.9922 H   0  0  0  0  0  0  0  0  0  0  0  0
    4.1383  -19.2611   34.4165 H   0  0  0  0  0  0  0  0  0  0  0  0
    4.0398  -17.9216   32.1331 H   0  0  0  0  0  0  0  0  0  0  0  0
    2.9048  -15.9609   31.1068 H   0  0  0  0  0  0  0  0  0  0  0  0
    0.7284  -18.2580   34.8573 H   0  0  0  0  0  0  0  0  0  0  0  0
   -1.1757  -16.5895   34.7649 H   0  0  0  0  0  0  0  0  0  0  0  0
   -1.6287  -11.6116   33.6930 H   0  0  0  0  0  0  0  0  0  0  0  0
   -3.5512  -11.7820   34.3895 H   0  0  0  0  0  0  0  0  0  0  0  0
   -1.8149   -9.8736   34.4928 H   0  0  0  0  0  0  0  0  0  0  0  0
   -3.5759   -9.8820   34.6259 H   0  0  0  0  0  0  0  0  0  0  0  0
   -2.6336   -8.2152   32.8936 H   0  0  0  0  0  0  0  0  0  0  0  0
   -3.9240   -9.2750   32.3535 H   0  0  0  0  0  0  0  0  0  0  0  0
   -1.0519   -9.5385   31.7957 H   0  0  0  0  0  0  0  0  0  0  0  0
   -2.6195  -11.4625   30.4819 H   0  0  0  0  0  0  0  0  0  0  0  0
   -1.1412  -11.6772   31.3872 H   0  0  0  0  0  0  0  0  0  0  0  0
   -3.1119  -13.0809   32.0025 H   0  0  0  0  0  0  0  0  0  0  0  0
   -4.2726  -11.9938   32.5122 H   0  0  0  0  0  0  0  0  0  0  0  0
   -1.1255  -14.3067   31.3945 H   0  0  0  0  0  0  0  0  0  0  0  0
   -0.2161  -13.2807   32.5030 H   0  0  0  0  0  0  0  0  0  0  0  0
  1  2  1  0
  2  3  2  0
  3  4  1  0
  4  5  2  0
  5  6  1  0
  6  7  2  0
  6  8  1  0
  8  9  2  0
  9 10  1  0
 10 11  2  0
 10 12  1  0
 12 13  1  0
 13 14  1  0
 14 15  1  0
 15 16  1  0
 16 17  1  0
 17 18  1  0
  9 19  1  0
 19 20  1  0
  7  2  1  0
 18 12  1  0
 20  5  1  0
  1 21  1  0
  1 22  1  0
  1 23  1  0
  3 24  1  0
  4 25  1  0
  7 26  1  0
  8 27  1  0
 13 28  1  0
 13 29  1  0
 14 30  1  0
 14 31  1  0
 15 32  1  0
 15 33  1  0
 16 34  1  0
 17 35  1  0
 17 36  1  0
 18 37  1  0
 18 38  1  0
 19 39  1  0
 19 40  1  0
M  END
>  <Energy>  (1185) 
626.17972981821185

>  <compound_id>  (1185) 
57856

>  <target_id>  (1185) 
1

>  <reference_id>  (1185) 
44

>  <inspiration_ids>  (1185) 
[89, 44]

>  <energy_score>  (1185) 
432.58698150520786

>  <distance_score>  (1185) 
10.66611492029213

>  <path>  (1185) 
/opt/xchem-fragalysis-2/maxwin/BulkDock/SCRATCH/511022/C57856-P44/C57856-P44.minimised.mol

>  <scratch_subdir>  (1185) 
/opt/xchem-fragalysis-2/maxwin/BulkDock/SCRATCH/511022/C57856-P44

>  <fragmenstein_runtime>  (1185) 
24.90363883972168

>  <fragmenstein_outcome>  (1185) 
too moved

>  <fragmenstein_mode>  (1185) 
expansion

>  <fragmenstein_error>  (1185) 


$$$$
C57857-P44
     RDKit          3D

 38 41  0  0  0  0  0  0  0  0999 V2000
   -1.9366  -17.4066   30.1826 C   0  0  0  0  0  0  0  0  0  0  0  0
   -1.2773  -16.4992   31.1834 C   0  0  0  0  0  0  0  0  0  0  0  0
    0.0072  -16.7602   31.6682 C   0  0  0  0  0  0  0  0  0  0  0  0
    0.6125  -15.9300   32.6012 C   0  0  0  0  0  0  0  0  0  0  0  0
   -0.0797  -14.8245   33.0732 C   0  0  0  0  0  0  0  0  0  0  0  0
   -1.3411  -14.4895   32.5663 C   0  0  0  0  0  0  0  0  0  0  0  0
   -1.9311  -15.3347   31.6163 C   0  0  0  0  0  0  0  0  0  0  0  0
   -1.9775  -13.2286   32.9999 C   0  0  0  0  0  0  0  0  0  0  0  0
   -1.4804  -12.6047   34.0845 C   0  0  0  0  0  0  0  0  0  0  0  0
   -1.9034  -11.2575   34.6780 C   0  0  0  0  0  0  0  0  0  0  0  0
   -1.1488  -10.7242   35.4847 O   0  0  0  0  0  0  0  0  0  0  0  0
   -3.1556  -10.7760   34.3443 N   0  0  0  0  0  0  0  0  0  0  0  0
   -3.8516   -9.6261   33.0972 C   0  0  0  0  0  0  0  0  0  0  0  0
   -4.3364   -8.0163   33.6667 C   0  0  0  0  0  0  0  0  0  0  0  0
   -3.1198   -7.2223   33.8180 N   0  0  0  0  0  0  0  0  0  0  0  0
   -2.0994   -8.2497   33.6611 C   0  0  0  0  0  0  0  0  0  0  0  0
   -1.6944   -8.7293   32.3740 C   0  0  0  0  0  0  0  0  0  0  0  0
   -2.9369   -9.6596   32.9045 C   0  0  0  0  0  0  0  0  0  0  0  0
   -0.3691  -13.3155   34.8510 C   0  0  0  0  0  0  0  0  0  0  0  0
    0.5442  -14.0682   34.0268 O   0  0  0  0  0  0  0  0  0  0  0  0
   -1.8631  -16.9786   29.1788 H   0  0  0  0  0  0  0  0  0  0  0  0
   -2.9971  -17.5269   30.4302 H   0  0  0  0  0  0  0  0  0  0  0  0
   -1.5018  -18.4067   30.1815 H   0  0  0  0  0  0  0  0  0  0  0  0
    0.5663  -17.6163   31.3360 H   0  0  0  0  0  0  0  0  0  0  0  0
    1.6044  -16.1616   32.9750 H   0  0  0  0  0  0  0  0  0  0  0  0
   -2.9120  -15.0942   31.2122 H   0  0  0  0  0  0  0  0  0  0  0  0
   -2.8012  -12.8411   32.4154 H   0  0  0  0  0  0  0  0  0  0  0  0
   -4.5321  -10.1033   32.2137 H   0  0  0  0  0  0  0  0  0  0  0  0
   -4.8422   -9.9444   33.6254 H   0  0  0  0  0  0  0  0  0  0  0  0
   -4.8547   -8.1209   34.6269 H   0  0  0  0  0  0  0  0  0  0  0  0
   -5.0017   -7.5884   32.9088 H   0  0  0  0  0  0  0  0  0  0  0  0
   -3.0670   -6.5112   33.0913 H   0  0  0  0  0  0  0  0  0  0  0  0
   -1.4714   -8.4525   34.5234 H   0  0  0  0  0  0  0  0  0  0  0  0
   -1.8701   -8.0650   31.5321 H   0  0  0  0  0  0  0  0  0  0  0  0
   -0.7111   -9.1638   32.2822 H   0  0  0  0  0  0  0  0  0  0  0  0
   -2.4613  -10.5224   32.2332 H   0  0  0  0  0  0  0  0  0  0  0  0
    0.2580  -12.6103   35.4042 H   0  0  0  0  0  0  0  0  0  0  0  0
   -0.8081  -13.9920   35.5960 H   0  0  0  0  0  0  0  0  0  0  0  0
  1  2  1  0
  2  3  2  0
  3  4  1  0
  4  5  2  0
  5  6  1  0
  6  7  2  0
  6  8  1  0
  8  9  2  0
  9 10  1  0
 10 11  2  0
 10 12  1  0
 12 13  1  0
 13 14  1  0
 14 15  1  0
 15 16  1  0
 16 17  1  0
 17 18  1  0
  9 19  1  0
 19 20  1  0
  7  2  1  0
 18 12  1  0
 20  5  1  0
 18 16  1  0
  1 21  1  0
  1 22  1  0
  1 23  1  0
  3 24  1  0
  4 25  1  0
  7 26  1  0
  8 27  1  0
 13 28  1  0
 13 29  1  0
 14 30  1  0
 14 31  1  0
 15 32  1  0
 16 33  1  0
 17 34  1  0
 17 35  1  0
 18 36  1  0
 19 37  1  0
 19 38  1  0
M  END
>  <Energy>  (1186) 
580.97311813128681

>  <compound_id>  (1186) 
57857

>  <target_id>  (1186) 
1

>  <reference_id>  (1186) 
44

>  <inspiration_ids>  (1186) 
[89, 44]

>  <energy_score>  (1186) 
499.5909584331339

>  <distance_score>  (1186) 
10.49309861393112

>  <path>  (1186) 
/opt/xchem-fragalysis-2/maxwin/BulkDock/SCRATCH/511022/C57857-P44/C57857-P44.minimised.mol

>  <scratch_subdir>  (1186) 
/opt/xchem-fragalysis-2/maxwin/BulkDock/SCRATCH/511022/C57857-P44

>  <fragmenstein_runtime>  (1186) 
19.758837461471558

>  <fragmenstein_outcome>  (1186) 
too moved

>  <fragmenstein_mode>  (1186) 
expansion

>  <fragmenstein_error>  (1186) 


$$$$
C57858-P44
     RDKit          3D

 44 47  0  0  0  0  0  0  0  0999 V2000
    0.1916  -15.6168   25.7822 C   0  0  0  0  0  0  0  0  0  0  0  0
    0.4651  -15.1984   27.1975 C   0  0  0  0  0  0  0  0  0  0  0  0
   -0.5040  -15.4374   28.2236 C   0  0  0  0  0  0  0  0  0  0  0  0
   -0.1299  -15.2405   29.5778 C   0  0  0  0  0  0  0  0  0  0  0  0
    1.1121  -14.6461   29.8563 C   0  0  0  0  0  0  0  0  0  0  0  0
    1.9368  -14.1332   28.8751 C   0  0  0  0  0  0  0  0  0  0  0  0
    1.6990  -14.5677   27.5454 C   0  0  0  0  0  0  0  0  0  0  0  0
    2.7304  -12.8263   29.3058 C   0  0  0  0  0  0  0  0  0  0  0  0
    2.0727  -11.7940   30.0352 C   0  0  0  0  0  0  0  0  0  0  0  0
    1.6467   -9.7165   29.4429 C   0  0  0  0  0  0  0  0  0  0  0  0
    2.0074   -9.3891   28.3813 O   0  0  0  0  0  0  0  0  0  0  0  0
    0.8705   -8.7370   30.7903 N   0  0  0  0  0  0  0  0  0  0  0  0
    0.6123   -7.3836   31.0056 C   0  0  0  0  0  0  0  0  0  0  0  0
    1.1083   -6.4810   32.6056 C   0  0  0  0  0  0  0  0  0  0  0  0
    1.9648   -5.2947   32.3719 N   0  0  0  0  0  0  0  0  0  0  0  0
    1.5820   -4.5957   31.1420 C   0  0  0  0  0  0  0  0  0  0  0  0
    1.4023   -5.5795   29.9823 C   0  0  0  0  0  0  0  0  0  0  0  0
    0.3013   -6.8573   30.5598 C   0  0  0  0  0  0  0  0  0  0  0  0
   -1.0689   -6.6900   29.7603 C   0  0  0  0  0  0  0  0  0  0  0  0
   -1.2635   -6.3559   31.1809 C   0  0  0  0  0  0  0  0  0  0  0  0
    1.2933  -12.8191   31.0580 C   0  0  0  0  0  0  0  0  0  0  0  0
    1.4744  -14.2555   31.0964 O   0  0  0  0  0  0  0  0  0  0  0  0
   -0.5915  -16.3807   25.7367 H   0  0  0  0  0  0  0  0  0  0  0  0
    1.0922  -16.0408   25.3258 H   0  0  0  0  0  0  0  0  0  0  0  0
   -0.1321  -14.7515   25.1959 H   0  0  0  0  0  0  0  0  0  0  0  0
   -1.4683  -15.8778   27.9837 H   0  0  0  0  0  0  0  0  0  0  0  0
   -0.8054  -15.5161   30.3797 H   0  0  0  0  0  0  0  0  0  0  0  0
    2.3558  -14.2678   26.7327 H   0  0  0  0  0  0  0  0  0  0  0  0
    3.5642  -12.6062   28.6459 H   0  0  0  0  0  0  0  0  0  0  0  0
   -0.0256   -7.9859   31.9093 H   0  0  0  0  0  0  0  0  0  0  0  0
    1.8113   -7.4109   31.1508 H   0  0  0  0  0  0  0  0  0  0  0  0
    1.6253   -7.2076   33.2463 H   0  0  0  0  0  0  0  0  0  0  0  0
    0.1965   -6.1711   33.1314 H   0  0  0  0  0  0  0  0  0  0  0  0
    2.9292   -5.6115   32.2728 H   0  0  0  0  0  0  0  0  0  0  0  0
    0.6506   -4.0476   31.3200 H   0  0  0  0  0  0  0  0  0  0  0  0
    2.3437   -3.8513   30.8879 H   0  0  0  0  0  0  0  0  0  0  0  0
    0.9392   -5.0645   29.1394 H   0  0  0  0  0  0  0  0  0  0  0  0
    2.3397   -6.0440   29.6527 H   0  0  0  0  0  0  0  0  0  0  0  0
   -1.0886   -5.8209   29.1164 H   0  0  0  0  0  0  0  0  0  0  0  0
   -1.5064   -7.5820   29.3534 H   0  0  0  0  0  0  0  0  0  0  0  0
   -1.2929   -5.3188   31.4968 H   0  0  0  0  0  0  0  0  0  0  0  0
   -1.8175   -7.0599   31.7965 H   0  0  0  0  0  0  0  0  0  0  0  0
    1.6952  -12.6524   32.0321 H   0  0  0  0  0  0  0  0  0  0  0  0
    0.2294  -12.7645   30.8688 H   0  0  0  0  0  0  0  0  0  0  0  0
  1  2  1  0
  2  3  2  0
  3  4  1  0
  4  5  2  0
  5  6  1  0
  6  7  2  0
  6  8  1  0
  8  9  2  0
  9 10  1  0
 10 11  2  0
 10 12  1  0
 12 13  1  0
 13 14  1  0
 14 15  1  0
 15 16  1  0
 16 17  1  0
 17 18  1  0
 18 19  1  0
 19 20  1  0
  9 21  1  0
 21 22  1  0
  7  2  1  0
 18 12  1  0
 22  5  1  0
 20 18  1  0
  1 23  1  0
  1 24  1  0
  1 25  1  0
  3 26  1  0
  4 27  1  0
  7 28  1  0
  8 29  1  0
 13 30  1  0
 13 31  1  0
 14 32  1  0
 14 33  1  0
 15 34  1  0
 16 35  1  0
 16 36  1  0
 17 37  1  0
 17 38  1  0
 19 39  1  0
 19 40  1  0
 20 41  1  0
 20 42  1  0
 21 43  1  0
 21 44  1  0
M  END
>  <Energy>  (1187) 
1095.9204347354341

>  <compound_id>  (1187) 
57858

>  <target_id>  (1187) 
1

>  <reference_id>  (1187) 
44

>  <inspiration_ids>  (1187) 
[89, 44]

>  <energy_score>  (1187) 
975.3449598400864

>  <distance_score>  (1187) 
8.583967676175266

>  <path>  (1187) 
/opt/xchem-fragalysis-2/maxwin/BulkDock/SCRATCH/511022/C57858-P44/C57858-P44.minimised.mol

>  <scratch_subdir>  (1187) 
/opt/xchem-fragalysis-2/maxwin/BulkDock/SCRATCH/511022/C57858-P44

>  <fragmenstein_runtime>  (1187) 
18.92563819885254

>  <fragmenstein_outcome>  (1187) 
too moved

>  <fragmenstein_mode>  (1187) 
expansion

>  <fragmenstein_error>  (1187) 


$$$$
C57859-P44
     RDKit          3D

 41 44  0  0  0  0  0  0  0  0999 V2000
    3.2613  -21.2321   26.2666 C   0  0  0  0  0  0  0  0  0  0  0  0
    3.5497  -19.4005   25.8145 C   0  0  0  0  0  0  0  0  0  0  0  0
    4.6540  -19.7701   26.6417 C   0  0  0  0  0  0  0  0  0  0  0  0
    4.9618  -19.4152   27.9181 C   0  0  0  0  0  0  0  0  0  0  0  0
    4.2365  -18.4512   28.2466 C   0  0  0  0  0  0  0  0  0  0  0  0
    2.9231  -17.0646   27.5751 C   0  0  0  0  0  0  0  0  0  0  0  0
    2.7292  -17.7636   26.1082 C   0  0  0  0  0  0  0  0  0  0  0  0
    2.3990  -15.4589   28.4367 C   0  0  0  0  0  0  0  0  0  0  0  0
    2.5893  -14.7783   29.8607 C   0  0  0  0  0  0  0  0  0  0  0  0
    2.1082  -12.8769   30.5660 C   0  0  0  0  0  0  0  0  0  0  0  0
    1.5368  -12.8122   31.5967 O   0  0  0  0  0  0  0  0  0  0  0  0
    2.4158  -11.5403   29.5584 N   0  0  0  0  0  0  0  0  0  0  0  0
    1.8265   -9.5613   29.6422 C   0  0  0  0  0  0  0  0  0  0  0  0
    0.7046   -8.2661   30.4223 C   0  0  0  0  0  0  0  0  0  0  0  0
    1.1299   -6.7868   30.0101 C   0  0  0  0  0  0  0  0  0  0  0  0
    1.3988   -5.9986   31.2442 C   0  0  0  0  0  0  0  0  0  0  0  0
    0.2427   -5.4665   32.0433 C   0  0  0  0  0  0  0  0  0  0  0  0
    0.8667   -6.7932   32.3734 C   0  0  0  0  0  0  0  0  0  0  0  0
    0.3612   -8.0741   31.8599 N   0  0  0  0  0  0  0  0  0  0  0  0
    3.1270  -16.4343   30.7071 C   0  0  0  0  0  0  0  0  0  0  0  0
    4.1728  -17.9703   30.1504 O   0  0  0  0  0  0  0  0  0  0  0  0
    2.6349  -22.0233   26.0186 H   0  0  0  0  0  0  0  0  0  0  0  0
    2.8966  -21.3642   27.2385 H   0  0  0  0  0  0  0  0  0  0  0  0
    3.7975  -22.1705   26.1667 H   0  0  0  0  0  0  0  0  0  0  0  0
    5.4089  -20.4247   26.2106 H   0  0  0  0  0  0  0  0  0  0  0  0
    5.8192  -19.6082   28.4980 H   0  0  0  0  0  0  0  0  0  0  0  0
    2.3419  -17.1774   25.2750 H   0  0  0  0  0  0  0  0  0  0  0  0
    2.0642  -14.8733   27.5754 H   0  0  0  0  0  0  0  0  0  0  0  0
    2.9549  -11.8261   28.8326 H   0  0  0  0  0  0  0  0  0  0  0  0
    2.1778   -8.9967   28.7531 H   0  0  0  0  0  0  0  0  0  0  0  0
    0.8273   -9.7839   29.1164 H   0  0  0  0  0  0  0  0  0  0  0  0
   -0.2573   -8.4476   29.9172 H   0  0  0  0  0  0  0  0  0  0  0  0
    0.2675   -6.2717   29.5863 H   0  0  0  0  0  0  0  0  0  0  0  0
    1.9738   -6.7528   29.3164 H   0  0  0  0  0  0  0  0  0  0  0  0
    2.3743   -5.5460   31.3200 H   0  0  0  0  0  0  0  0  0  0  0  0
   -0.7456   -5.4564   31.6027 H   0  0  0  0  0  0  0  0  0  0  0  0
    0.4335   -4.6397   32.7184 H   0  0  0  0  0  0  0  0  0  0  0  0
    1.4406   -6.8507   33.2932 H   0  0  0  0  0  0  0  0  0  0  0  0
   -0.6356   -8.2059   32.0342 H   0  0  0  0  0  0  0  0  0  0  0  0
    3.5456  -16.2527   31.7075 H   0  0  0  0  0  0  0  0  0  0  0  0
    2.1582  -16.8151   31.0721 H   0  0  0  0  0  0  0  0  0  0  0  0
  1  2  1  0
  2  3  2  0
  3  4  1  0
  4  5  2  0
  5  6  1  0
  6  7  2  0
  6  8  1  0
  8  9  2  0
  9 10  1  0
 10 11  2  0
 10 12  1  0
 12 13  1  0
 13 14  1  0
 14 15  1  0
 15 16  1  0
 16 17  1  0
 17 18  1  0
 18 19  1  0
  9 20  1  0
 20 21  1  0
  7  2  1  0
 19 14  1  0
 21  5  1  0
 18 16  1  0
  1 22  1  0
  1 23  1  0
  1 24  1  0
  3 25  1  0
  4 26  1  0
  7 27  1  0
  8 28  1  0
 12 29  1  0
 13 30  1  0
 13 31  1  0
 14 32  1  0
 15 33  1  0
 15 34  1  0
 16 35  1  0
 17 36  1  0
 17 37  1  0
 18 38  1  0
 19 39  1  0
 20 40  1  0
 20 41  1  0
M  END
>  <Energy>  (1188) 
1101.638327027167

>  <compound_id>  (1188) 
57859

>  <target_id>  (1188) 
1

>  <reference_id>  (1188) 
44

>  <inspiration_ids>  (1188) 
[89, 44]

>  <energy_score>  (1188) 
1041.6450385034195

>  <distance_score>  (1188) 
7.242142069594382

>  <path>  (1188) 
/opt/xchem-fragalysis-2/maxwin/BulkDock/SCRATCH/511022/C57859-P44/C57859-P44.minimised.mol

>  <scratch_subdir>  (1188) 
/opt/xchem-fragalysis-2/maxwin/BulkDock/SCRATCH/511022/C57859-P44

>  <fragmenstein_runtime>  (1188) 
14.979012250900269

>  <fragmenstein_outcome>  (1188) 
too moved

>  <fragmenstein_mode>  (1188) 
expansion

>  <fragmenstein_error>  (1188) 


$$$$
C57860-P44
     RDKit          3D

 47 50  0  0  0  0  0  0  0  0999 V2000
    3.4225  -18.6374   32.7049 C   0  0  0  0  0  0  0  0  0  0  0  0
    3.6762  -17.1996   33.0232 C   0  0  0  0  0  0  0  0  0  0  0  0
    4.7902  -16.8638   33.8075 C   0  0  0  0  0  0  0  0  0  0  0  0
    5.0369  -15.5206   34.1069 C   0  0  0  0  0  0  0  0  0  0  0  0
    4.2469  -14.5177   33.5069 C   0  0  0  0  0  0  0  0  0  0  0  0
    3.1910  -14.8129   32.6463 C   0  0  0  0  0  0  0  0  0  0  0  0
    2.8747  -16.1749   32.4591 C   0  0  0  0  0  0  0  0  0  0  0  0
    2.6224  -13.7090   31.7876 C   0  0  0  0  0  0  0  0  0  0  0  0
    2.9696  -12.4344   31.5251 C   0  0  0  0  0  0  0  0  0  0  0  0
    2.7713  -11.6543   29.8615 C   0  0  0  0  0  0  0  0  0  0  0  0
    3.1952  -12.4169   29.0151 O   0  0  0  0  0  0  0  0  0  0  0  0
    2.1556   -9.8450   29.5770 N   0  0  0  0  0  0  0  0  0  0  0  0
    2.1549   -8.7982   28.1456 C   0  0  0  0  0  0  0  0  0  0  0  0
    2.8357   -7.0583   28.3867 C   0  0  0  0  0  0  0  0  0  0  0  0
    4.4243   -6.9023   28.5780 C   0  0  0  0  0  0  0  0  0  0  0  0
    4.9049   -5.4653   28.9268 C   0  0  0  0  0  0  0  0  0  0  0  0
    4.2619   -4.3840   28.0706 C   0  0  0  0  0  0  0  0  0  0  0  0
    2.8656   -4.6971   27.7843 N   0  0  0  0  0  0  0  0  0  0  0  0
    2.0435   -4.7710   29.0011 C   0  0  0  0  0  0  0  0  0  0  0  0
    2.0940   -6.2301   29.4875 C   0  0  0  0  0  0  0  0  0  0  0  0
    2.7922   -6.0471   27.1889 C   0  0  0  0  0  0  0  0  0  0  0  0
    4.5719  -12.5015   32.3493 C   0  0  0  0  0  0  0  0  0  0  0  0
    4.7037  -13.2443   33.6046 O   0  0  0  0  0  0  0  0  0  0  0  0
    4.0470  -18.9154   31.8585 H   0  0  0  0  0  0  0  0  0  0  0  0
    3.6578  -19.2815   33.5581 H   0  0  0  0  0  0  0  0  0  0  0  0
    2.3737  -18.7859   32.4597 H   0  0  0  0  0  0  0  0  0  0  0  0
    5.4431  -17.6403   34.1990 H   0  0  0  0  0  0  0  0  0  0  0  0
    5.8948  -15.2403   34.7095 H   0  0  0  0  0  0  0  0  0  0  0  0
    2.0718  -16.4475   31.7792 H   0  0  0  0  0  0  0  0  0  0  0  0
    1.5946  -13.6021   32.0004 H   0  0  0  0  0  0  0  0  0  0  0  0
    1.7843   -9.4724   30.4148 H   0  0  0  0  0  0  0  0  0  0  0  0
    1.0851   -8.6847   28.1442 H   0  0  0  0  0  0  0  0  0  0  0  0
    2.7272   -9.1364   27.2736 H   0  0  0  0  0  0  0  0  0  0  0  0
    4.9287   -7.2240   27.6542 H   0  0  0  0  0  0  0  0  0  0  0  0
    4.8514   -7.5480   29.3267 H   0  0  0  0  0  0  0  0  0  0  0  0
    5.9956   -5.4173   28.8246 H   0  0  0  0  0  0  0  0  0  0  0  0
    4.6919   -5.2531   29.9801 H   0  0  0  0  0  0  0  0  0  0  0  0
    4.3523   -3.4049   28.5558 H   0  0  0  0  0  0  0  0  0  0  0  0
    4.8073   -4.2970   27.1222 H   0  0  0  0  0  0  0  0  0  0  0  0
    2.3673   -4.0691   29.7786 H   0  0  0  0  0  0  0  0  0  0  0  0
    1.0130   -4.4927   28.7572 H   0  0  0  0  0  0  0  0  0  0  0  0
    1.0922   -6.6084   29.7034 H   0  0  0  0  0  0  0  0  0  0  0  0
    2.6235   -6.2458   30.4427 H   0  0  0  0  0  0  0  0  0  0  0  0
    3.5654   -6.2234   26.4275 H   0  0  0  0  0  0  0  0  0  0  0  0
    1.9181   -5.9690   26.6109 H   0  0  0  0  0  0  0  0  0  0  0  0
    4.8142  -11.4948   32.7313 H   0  0  0  0  0  0  0  0  0  0  0  0
    5.3865  -12.8224   31.6920 H   0  0  0  0  0  0  0  0  0  0  0  0
  1  2  1  0
  2  3  2  0
  3  4  1  0
  4  5  2  0
  5  6  1  0
  6  7  2  0
  6  8  1  0
  8  9  2  0
  9 10  1  0
 10 11  2  0
 10 12  1  0
 12 13  1  0
 13 14  1  0
 14 15  1  0
 15 16  1  0
 16 17  1  0
 17 18  1  0
 18 19  1  0
 19 20  1  0
 18 21  1  0
  9 22  1  0
 22 23  1  0
  7  2  1  0
 20 14  1  0
 23  5  1  0
 21 14  1  0
  1 24  1  0
  1 25  1  0
  1 26  1  0
  3 27  1  0
  4 28  1  0
  7 29  1  0
  8 30  1  0
 12 31  1  0
 13 32  1  0
 13 33  1  0
 15 34  1  0
 15 35  1  0
 16 36  1  0
 16 37  1  0
 17 38  1  0
 17 39  1  0
 19 40  1  0
 19 41  1  0
 20 42  1  0
 20 43  1  0
 21 44  1  0
 21 45  1  0
 22 46  1  0
 22 47  1  0
M  END
>  <Energy>  (1189) 
319.71080375644362

>  <compound_id>  (1189) 
57860

>  <target_id>  (1189) 
1

>  <reference_id>  (1189) 
44

>  <inspiration_ids>  (1189) 
[89, 44]

>  <energy_score>  (1189) 
260.00657205331584

>  <distance_score>  (1189) 
8.148169763067147

>  <path>  (1189) 
/opt/xchem-fragalysis-2/maxwin/BulkDock/SCRATCH/511022/C57860-P44/C57860-P44.minimised.mol

>  <scratch_subdir>  (1189) 
/opt/xchem-fragalysis-2/maxwin/BulkDock/SCRATCH/511022/C57860-P44

>  <fragmenstein_runtime>  (1189) 
18.710346698760986

>  <fragmenstein_outcome>  (1189) 
too moved

>  <fragmenstein_mode>  (1189) 
expansion

>  <fragmenstein_error>  (1189) 


$$$$
C57861-P44
     RDKit          3D

 47 50  0  0  0  0  0  0  0  0999 V2000
    0.0801  -17.8805   34.7485 C   0  0  0  0  0  0  0  0  0  0  0  0
    1.2571  -17.5182   33.8923 C   0  0  0  0  0  0  0  0  0  0  0  0
    2.3542  -18.3899   33.7142 C   0  0  0  0  0  0  0  0  0  0  0  0
    3.2752  -18.0822   32.7452 C   0  0  0  0  0  0  0  0  0  0  0  0
    3.1715  -16.8169   32.2150 C   0  0  0  0  0  0  0  0  0  0  0  0
    2.5289  -15.7917   32.8248 C   0  0  0  0  0  0  0  0  0  0  0  0
    1.3382  -16.2016   33.3913 C   0  0  0  0  0  0  0  0  0  0  0  0
    2.9660  -14.4245   32.4379 C   0  0  0  0  0  0  0  0  0  0  0  0
    2.8129  -14.0149   31.1418 C   0  0  0  0  0  0  0  0  0  0  0  0
    2.0020  -12.5571   30.9249 C   0  0  0  0  0  0  0  0  0  0  0  0
    1.0696  -12.5254   31.6421 O   0  0  0  0  0  0  0  0  0  0  0  0
    2.3892  -11.2558   29.8130 N   0  0  0  0  0  0  0  0  0  0  0  0
    1.5361   -9.4097   29.5409 C   0  0  0  0  0  0  0  0  0  0  0  0
    0.8044   -8.0617   30.7621 C   0  0  0  0  0  0  0  0  0  0  0  0
    1.5369   -7.1400   31.9023 C   0  0  0  0  0  0  0  0  0  0  0  0
    0.5543   -6.2294   32.6979 C   0  0  0  0  0  0  0  0  0  0  0  0
   -0.6552   -5.9712   31.9252 N   0  0  0  0  0  0  0  0  0  0  0  0
   -0.1839   -5.5911   30.6020 C   0  0  0  0  0  0  0  0  0  0  0  0
    0.3537   -6.8545   29.9129 C   0  0  0  0  0  0  0  0  0  0  0  0
   -1.4181   -7.2330   31.8345 C   0  0  0  0  0  0  0  0  0  0  0  0
   -0.5312   -8.4577   31.4649 C   0  0  0  0  0  0  0  0  0  0  0  0
    2.5293  -15.5522   30.3530 C   0  0  0  0  0  0  0  0  0  0  0  0
    3.3832  -16.6163   30.8922 O   0  0  0  0  0  0  0  0  0  0  0  0
   -0.0583  -17.1401   35.5439 H   0  0  0  0  0  0  0  0  0  0  0  0
    0.2102  -18.8472   35.2449 H   0  0  0  0  0  0  0  0  0  0  0  0
   -0.8348  -17.9027   34.1497 H   0  0  0  0  0  0  0  0  0  0  0  0
    2.4162  -19.3439   34.2299 H   0  0  0  0  0  0  0  0  0  0  0  0
    3.9422  -18.8225   32.3279 H   0  0  0  0  0  0  0  0  0  0  0  0
    0.5596  -15.4784   33.6130 H   0  0  0  0  0  0  0  0  0  0  0  0
    3.3257  -13.8282   33.2484 H   0  0  0  0  0  0  0  0  0  0  0  0
    3.1553  -11.5296   29.2620 H   0  0  0  0  0  0  0  0  0  0  0  0
    2.0669   -8.8424   28.7675 H   0  0  0  0  0  0  0  0  0  0  0  0
    0.5682   -9.6554   29.0472 H   0  0  0  0  0  0  0  0  0  0  0  0
    2.2924   -6.4932   31.4377 H   0  0  0  0  0  0  0  0  0  0  0  0
    2.0027   -7.6630   32.7244 H   0  0  0  0  0  0  0  0  0  0  0  0
    1.0577   -5.2883   32.9549 H   0  0  0  0  0  0  0  0  0  0  0  0
    0.2963   -6.6921   33.6604 H   0  0  0  0  0  0  0  0  0  0  0  0
    0.5914   -4.8144   30.6609 H   0  0  0  0  0  0  0  0  0  0  0  0
   -0.9781   -5.1336   30.0089 H   0  0  0  0  0  0  0  0  0  0  0  0
    1.2226   -6.5324   29.3280 H   0  0  0  0  0  0  0  0  0  0  0  0
   -0.5273   -7.2486   29.3988 H   0  0  0  0  0  0  0  0  0  0  0  0
   -1.9140   -7.4280   32.7941 H   0  0  0  0  0  0  0  0  0  0  0  0
   -2.2312   -7.1344   31.1109 H   0  0  0  0  0  0  0  0  0  0  0  0
   -0.2935   -8.9178   32.4201 H   0  0  0  0  0  0  0  0  0  0  0  0
   -1.0807   -9.1910   30.8765 H   0  0  0  0  0  0  0  0  0  0  0  0
    1.5979  -16.1169   30.4396 H   0  0  0  0  0  0  0  0  0  0  0  0
    2.5512  -15.4155   29.2729 H   0  0  0  0  0  0  0  0  0  0  0  0
  1  2  1  0
  2  3  2  0
  3  4  1  0
  4  5  2  0
  5  6  1  0
  6  7  2  0
  6  8  1  0
  8  9  2  0
  9 10  1  0
 10 11  2  0
 10 12  1  0
 12 13  1  0
 13 14  1  0
 14 15  1  0
 15 16  1  0
 16 17  1  0
 17 18  1  0
 18 19  1  0
 17 20  1  0
 20 21  1  0
  9 22  1  0
 22 23  1  0
  7  2  1  0
 19 14  1  0
 23  5  1  0
 21 14  1  0
  1 24  1  0
  1 25  1  0
  1 26  1  0
  3 27  1  0
  4 28  1  0
  7 29  1  0
  8 30  1  0
 12 31  1  0
 13 32  1  0
 13 33  1  0
 15 34  1  0
 15 35  1  0
 16 36  1  0
 16 37  1  0
 18 38  1  0
 18 39  1  0
 19 40  1  0
 19 41  1  0
 20 42  1  0
 20 43  1  0
 21 44  1  0
 21 45  1  0
 22 46  1  0
 22 47  1  0
M  END
>  <Energy>  (1190) 
381.14769596405517

>  <compound_id>  (1190) 
57861

>  <target_id>  (1190) 
1

>  <reference_id>  (1190) 
44

>  <inspiration_ids>  (1190) 
[89, 44]

>  <energy_score>  (1190) 
328.96319844113816

>  <distance_score>  (1190) 
8.178952112113368

>  <path>  (1190) 
/opt/xchem-fragalysis-2/maxwin/BulkDock/SCRATCH/511022/C57861-P44/C57861-P44.minimised.mol

>  <scratch_subdir>  (1190) 
/opt/xchem-fragalysis-2/maxwin/BulkDock/SCRATCH/511022/C57861-P44

>  <fragmenstein_runtime>  (1190) 
31.425857305526733

>  <fragmenstein_outcome>  (1190) 
too moved

>  <fragmenstein_mode>  (1190) 
expansion

>  <fragmenstein_error>  (1190) 


$$$$
C57862-P44
     RDKit          3D

 43 45  0  0  0  0  0  0  0  0999 V2000
    4.2120  -19.6175   26.7198 C   0  0  0  0  0  0  0  0  0  0  0  0
    3.9471  -18.6977   27.9310 C   0  0  0  0  0  0  0  0  0  0  0  0
    4.5056  -18.9854   29.5350 C   0  0  0  0  0  0  0  0  0  0  0  0
    4.1051  -18.1658   30.9559 C   0  0  0  0  0  0  0  0  0  0  0  0
    3.2680  -16.7687   30.9007 C   0  0  0  0  0  0  0  0  0  0  0  0
    2.7757  -16.1439   29.4685 C   0  0  0  0  0  0  0  0  0  0  0  0
    3.0102  -16.9119   27.8066 C   0  0  0  0  0  0  0  0  0  0  0  0
    2.4737  -14.7596   29.5522 C   0  0  0  0  0  0  0  0  0  0  0  0
    2.6434  -13.8868   30.6464 C   0  0  0  0  0  0  0  0  0  0  0  0
    1.9622  -12.4434   30.7279 C   0  0  0  0  0  0  0  0  0  0  0  0
    1.0947  -12.4596   31.5474 O   0  0  0  0  0  0  0  0  0  0  0  0
    2.3568  -11.1933   29.7071 N   0  0  0  0  0  0  0  0  0  0  0  0
    1.4862   -9.3843   29.4163 C   0  0  0  0  0  0  0  0  0  0  0  0
    2.1396   -8.2897   28.3567 C   0  0  0  0  0  0  0  0  0  0  0  0
    2.7062   -6.8563   28.6336 C   0  0  0  0  0  0  0  0  0  0  0  0
    2.0719   -5.7790   29.5333 C   0  0  0  0  0  0  0  0  0  0  0  0
    0.8253   -6.0485   30.3594 C   0  0  0  0  0  0  0  0  0  0  0  0
    0.8968   -7.2956   31.1039 N   0  0  0  0  0  0  0  0  0  0  0  0
    0.3927   -8.4651   30.3647 C   0  0  0  0  0  0  0  0  0  0  0  0
    2.8649  -14.6750   32.0504 C   0  0  0  0  0  0  0  0  0  0  0  0
    3.1130  -16.1097   32.0892 O   0  0  0  0  0  0  0  0  0  0  0  0
    5.2428  -19.8974   26.6345 H   0  0  0  0  0  0  0  0  0  0  0  0
    3.7180  -19.1728   25.8685 H   0  0  0  0  0  0  0  0  0  0  0  0
    3.7448  -20.5847   26.5543 H   0  0  0  0  0  0  0  0  0  0  0  0
    5.4235  -19.5126   29.5530 H   0  0  0  0  0  0  0  0  0  0  0  0
    4.5259  -18.4935   31.9039 H   0  0  0  0  0  0  0  0  0  0  0  0
    2.6177  -16.4465   26.8841 H   0  0  0  0  0  0  0  0  0  0  0  0
    2.3304  -14.5369   28.4955 H   0  0  0  0  0  0  0  0  0  0  0  0
    3.1578  -11.4341   29.2031 H   0  0  0  0  0  0  0  0  0  0  0  0
    0.6159   -9.7449   28.8236 H   0  0  0  0  0  0  0  0  0  0  0  0
    2.7265   -8.7209   27.5306 H   0  0  0  0  0  0  0  0  0  0  0  0
    1.3640   -8.1610   27.6862 H   0  0  0  0  0  0  0  0  0  0  0  0
    3.7543   -6.9545   28.9458 H   0  0  0  0  0  0  0  0  0  0  0  0
    2.8150   -6.3904   27.6419 H   0  0  0  0  0  0  0  0  0  0  0  0
    2.8577   -5.4527   30.2299 H   0  0  0  0  0  0  0  0  0  0  0  0
    1.8771   -4.8899   28.9181 H   0  0  0  0  0  0  0  0  0  0  0  0
    0.7542   -5.2344   31.0932 H   0  0  0  0  0  0  0  0  0  0  0  0
   -0.0983   -5.9655   29.7834 H   0  0  0  0  0  0  0  0  0  0  0  0
    0.3184   -7.1994   31.9431 H   0  0  0  0  0  0  0  0  0  0  0  0
   -0.3830   -8.1214   29.6678 H   0  0  0  0  0  0  0  0  0  0  0  0
   -0.2253   -9.0665   31.0440 H   0  0  0  0  0  0  0  0  0  0  0  0
    2.0038  -14.5961   32.7181 H   0  0  0  0  0  0  0  0  0  0  0  0
    3.6883  -14.1864   32.5845 H   0  0  0  0  0  0  0  0  0  0  0  0
  1  2  1  0
  2  3  2  0
  3  4  1  0
  4  5  2  0
  5  6  1  0
  6  7  2  0
  6  8  1  0
  8  9  2  0
  9 10  1  0
 10 11  2  0
 10 12  1  0
 12 13  1  0
 13 14  1  0
 14 15  1  0
 15 16  1  0
 16 17  1  0
 17 18  1  0
 18 19  1  0
  9 20  1  0
 20 21  1  0
  7  2  1  0
 19 13  1  0
 21  5  1  0
  1 22  1  0
  1 23  1  0
  1 24  1  0
  3 25  1  0
  4 26  1  0
  7 27  1  0
  8 28  1  0
 12 29  1  0
 13 30  1  0
 14 31  1  0
 14 32  1  0
 15 33  1  0
 15 34  1  0
 16 35  1  0
 16 36  1  0
 17 37  1  0
 17 38  1  0
 18 39  1  0
 19 40  1  0
 19 41  1  0
 20 42  1  0
 20 43  1  0
M  END
>  <Energy>  (1191) 
525.76999772109014

>  <compound_id>  (1191) 
57862

>  <target_id>  (1191) 
1

>  <reference_id>  (1191) 
44

>  <inspiration_ids>  (1191) 
[89, 44]

>  <energy_score>  (1191) 
470.8722530565427

>  <distance_score>  (1191) 
7.712078912156048

>  <path>  (1191) 
/opt/xchem-fragalysis-2/maxwin/BulkDock/SCRATCH/511022/C57862-P44/C57862-P44.minimised.mol

>  <scratch_subdir>  (1191) 
/opt/xchem-fragalysis-2/maxwin/BulkDock/SCRATCH/511022/C57862-P44

>  <fragmenstein_runtime>  (1191) 
17.85765528678894

>  <fragmenstein_outcome>  (1191) 
too moved

>  <fragmenstein_mode>  (1191) 
expansion

>  <fragmenstein_error>  (1191) 


$$$$
C57863-P44
     RDKit          3D

 41 44  0  0  0  0  0  0  0  0999 V2000
    1.9872  -20.4113   28.3146 C   0  0  0  0  0  0  0  0  0  0  0  0
    2.8431  -18.5520   27.4546 C   0  0  0  0  0  0  0  0  0  0  0  0
    4.0532  -19.2341   27.1974 C   0  0  0  0  0  0  0  0  0  0  0  0
    4.2814  -18.3455   28.1064 C   0  0  0  0  0  0  0  0  0  0  0  0
    3.2609  -16.4550   28.1867 C   0  0  0  0  0  0  0  0  0  0  0  0
    2.4954  -15.4065   29.2032 C   0  0  0  0  0  0  0  0  0  0  0  0
    2.6499  -16.6006   28.0403 C   0  0  0  0  0  0  0  0  0  0  0  0
    2.5617  -13.6010   30.1391 C   0  0  0  0  0  0  0  0  0  0  0  0
    2.1412  -11.9613   29.5959 C   0  0  0  0  0  0  0  0  0  0  0  0
    0.8555  -10.1822   29.3215 C   0  0  0  0  0  0  0  0  0  0  0  0
   -0.3401  -10.0690   29.3967 O   0  0  0  0  0  0  0  0  0  0  0  0
    1.8596   -9.1271   29.1245 N   0  0  0  0  0  0  0  0  0  0  0  0
    1.7301   -7.6344   29.0668 C   0  0  0  0  0  0  0  0  0  0  0  0
    2.6160   -6.9803   27.9666 C   0  0  0  0  0  0  0  0  0  0  0  0
    3.6694   -6.1391   28.6902 C   0  0  0  0  0  0  0  0  0  0  0  0
    2.9364   -5.5508   29.7976 N   0  0  0  0  0  0  0  0  0  0  0  0
    1.8512   -6.4853   30.1573 C   0  0  0  0  0  0  0  0  0  0  0  0
    0.5686   -5.7427   30.5593 C   0  0  0  0  0  0  0  0  0  0  0  0
    1.2944   -6.5703   31.5591 C   0  0  0  0  0  0  0  0  0  0  0  0
    2.9385  -13.2462   28.1856 C   0  0  0  0  0  0  0  0  0  0  0  0
    2.6436  -14.8726   27.2793 O   0  0  0  0  0  0  0  0  0  0  0  0
    1.1528  -21.1972   28.1504 H   0  0  0  0  0  0  0  0  0  0  0  0
    1.8854  -20.5090   29.4588 H   0  0  0  0  0  0  0  0  0  0  0  0
    2.4886  -21.3121   27.4662 H   0  0  0  0  0  0  0  0  0  0  0  0
    4.2369  -20.1387   26.7335 H   0  0  0  0  0  0  0  0  0  0  0  0
    4.6070  -18.8713   29.0670 H   0  0  0  0  0  0  0  0  0  0  0  0
    2.1662  -16.5263   29.5063 H   0  0  0  0  0  0  0  0  0  0  0  0
    2.5208  -13.7760   31.2248 H   0  0  0  0  0  0  0  0  0  0  0  0
    2.7286   -9.5207   29.1876 H   0  0  0  0  0  0  0  0  0  0  0  0
    0.6704   -7.7425   29.2965 H   0  0  0  0  0  0  0  0  0  0  0  0
    2.1160   -6.2297   27.3624 H   0  0  0  0  0  0  0  0  0  0  0  0
    3.0530   -7.6952   27.2640 H   0  0  0  0  0  0  0  0  0  0  0  0
    4.0928   -5.3688   28.0385 H   0  0  0  0  0  0  0  0  0  0  0  0
    4.4882   -6.7729   29.0406 H   0  0  0  0  0  0  0  0  0  0  0  0
    3.5349   -5.2684   30.5711 H   0  0  0  0  0  0  0  0  0  0  0  0
    0.6060   -4.6635   30.6676 H   0  0  0  0  0  0  0  0  0  0  0  0
   -0.4003   -6.1002   30.2281 H   0  0  0  0  0  0  0  0  0  0  0  0
    1.8130   -6.0550   32.3588 H   0  0  0  0  0  0  0  0  0  0  0  0
    0.8026   -7.4838   31.8754 H   0  0  0  0  0  0  0  0  0  0  0  0
    3.7958  -13.1226   27.5280 H   0  0  0  0  0  0  0  0  0  0  0  0
    3.8667  -13.1690   28.7285 H   0  0  0  0  0  0  0  0  0  0  0  0
  1  2  1  0
  2  3  2  0
  3  4  1  0
  4  5  2  0
  5  6  1  0
  6  7  2  0
  6  8  1  0
  8  9  2  0
  9 10  1  0
 10 11  2  0
 10 12  1  0
 12 13  1  0
 13 14  1  0
 14 15  1  0
 15 16  1  0
 16 17  1  0
 17 18  1  0
 18 19  1  0
  9 20  1  0
 20 21  1  0
  7  2  1  0
 17 13  1  0
 21  5  1  0
 19 17  1  0
  1 22  1  0
  1 23  1  0
  1 24  1  0
  3 25  1  0
  4 26  1  0
  7 27  1  0
  8 28  1  0
 12 29  1  0
 13 30  1  0
 14 31  1  0
 14 32  1  0
 15 33  1  0
 15 34  1  0
 16 35  1  0
 18 36  1  0
 18 37  1  0
 19 38  1  0
 19 39  1  0
 20 40  1  0
 20 41  1  0
M  END
>  <Energy>  (1192) 
2159.1656809814276

>  <compound_id>  (1192) 
57863

>  <target_id>  (1192) 
1

>  <reference_id>  (1192) 
44

>  <inspiration_ids>  (1192) 
[89, 44]

>  <energy_score>  (1192) 
2115.342151294104

>  <distance_score>  (1192) 
7.7885587383991775

>  <path>  (1192) 
/opt/xchem-fragalysis-2/maxwin/BulkDock/SCRATCH/511022/C57863-P44/C57863-P44.minimised.mol

>  <scratch_subdir>  (1192) 
/opt/xchem-fragalysis-2/maxwin/BulkDock/SCRATCH/511022/C57863-P44

>  <fragmenstein_runtime>  (1192) 
12.73592495918274

>  <fragmenstein_outcome>  (1192) 
too moved

>  <fragmenstein_mode>  (1192) 
expansion

>  <fragmenstein_error>  (1192) 


$$$$
C42168-P44
     RDKit          3D

 43 45  0  0  0  0  0  0  0  0999 V2000
    3.5875  -18.5459   32.8072 C   0  0  0  0  0  0  0  0  0  0  0  0
    3.8640  -17.1141   33.1545 C   0  0  0  0  0  0  0  0  0  0  0  0
    4.9720  -16.7715   33.9508 C   0  0  0  0  0  0  0  0  0  0  0  0
    5.2346  -15.4203   34.2564 C   0  0  0  0  0  0  0  0  0  0  0  0
    4.4793  -14.3973   33.6528 C   0  0  0  0  0  0  0  0  0  0  0  0
    3.4334  -14.7205   32.7848 C   0  0  0  0  0  0  0  0  0  0  0  0
    3.0781  -16.0809   32.6015 C   0  0  0  0  0  0  0  0  0  0  0  0
    2.9923  -13.6832   31.8248 C   0  0  0  0  0  0  0  0  0  0  0  0
    3.4782  -12.4351   31.6093 C   0  0  0  0  0  0  0  0  0  0  0  0
    2.4453  -11.4527   30.3408 C   0  0  0  0  0  0  0  0  0  0  0  0
    1.6550  -12.1341   29.9166 O   0  0  0  0  0  0  0  0  0  0  0  0
    2.1575   -9.6334   29.6685 N   0  0  0  0  0  0  0  0  0  0  0  0
    1.1763   -9.0680   28.6547 C   0  0  0  0  0  0  0  0  0  0  0  0
    1.0509   -8.4232   30.6426 C   0  0  0  0  0  0  0  0  0  0  0  0
    1.2807   -6.7955   30.4654 C   0  0  0  0  0  0  0  0  0  0  0  0
   -0.0126   -5.9816   30.6118 C   0  0  0  0  0  0  0  0  0  0  0  0
    0.3236   -4.5951   30.0632 C   0  0  0  0  0  0  0  0  0  0  0  0
    1.6836   -4.7507   29.3995 C   0  0  0  0  0  0  0  0  0  0  0  0
    1.9008   -6.2062   29.2745 N   0  0  0  0  0  0  0  0  0  0  0  0
    4.8234  -12.2831   32.5576 C   0  0  0  0  0  0  0  0  0  0  0  0
    4.9367  -13.1138   33.7670 O   0  0  0  0  0  0  0  0  0  0  0  0
    2.5226  -18.6956   32.6222 H   0  0  0  0  0  0  0  0  0  0  0  0
    4.1532  -18.8094   31.9140 H   0  0  0  0  0  0  0  0  0  0  0  0
    3.8768  -19.2120   33.6263 H   0  0  0  0  0  0  0  0  0  0  0  0
    5.6140  -17.5528   34.3515 H   0  0  0  0  0  0  0  0  0  0  0  0
    6.0862  -15.1582   34.8762 H   0  0  0  0  0  0  0  0  0  0  0  0
    2.2780  -16.3339   31.9079 H   0  0  0  0  0  0  0  0  0  0  0  0
    2.4686  -14.0451   30.9829 H   0  0  0  0  0  0  0  0  0  0  0  0
    1.8091   -8.4879   27.9865 H   0  0  0  0  0  0  0  0  0  0  0  0
    0.4885   -9.8195   28.3171 H   0  0  0  0  0  0  0  0  0  0  0  0
    0.2952   -8.4961   28.9095 H   0  0  0  0  0  0  0  0  0  0  0  0
    1.1051   -8.4159   31.7340 H   0  0  0  0  0  0  0  0  0  0  0  0
   -0.0179   -8.7305   30.5627 H   0  0  0  0  0  0  0  0  0  0  0  0
    1.9238   -6.5085   31.3129 H   0  0  0  0  0  0  0  0  0  0  0  0
   -0.8330   -6.4273   30.0392 H   0  0  0  0  0  0  0  0  0  0  0  0
   -0.3343   -5.9266   31.6572 H   0  0  0  0  0  0  0  0  0  0  0  0
   -0.4416   -4.2698   29.3509 H   0  0  0  0  0  0  0  0  0  0  0  0
    0.3676   -3.8543   30.8687 H   0  0  0  0  0  0  0  0  0  0  0  0
    1.7277   -4.2574   28.4242 H   0  0  0  0  0  0  0  0  0  0  0  0
    2.4642   -4.3157   30.0349 H   0  0  0  0  0  0  0  0  0  0  0  0
    2.9040   -6.3844   29.2460 H   0  0  0  0  0  0  0  0  0  0  0  0
    5.7205  -12.5222   31.9718 H   0  0  0  0  0  0  0  0  0  0  0  0
    4.9253  -11.2571   32.9402 H   0  0  0  0  0  0  0  0  0  0  0  0
  1  2  1  0
  2  3  2  0
  3  4  1  0
  4  5  2  0
  5  6  1  0
  6  7  2  0
  6  8  1  0
  8  9  2  0
  9 10  1  0
 10 11  2  0
 10 12  1  0
 12 13  1  0
 12 14  1  0
 14 15  1  0
 15 16  1  0
 16 17  1  0
 17 18  1  0
 18 19  1  0
  9 20  1  0
 20 21  1  0
  7  2  1  0
 19 15  1  0
 21  5  1  0
  1 22  1  0
  1 23  1  0
  1 24  1  0
  3 25  1  0
  4 26  1  0
  7 27  1  0
  8 28  1  0
 13 29  1  0
 13 30  1  0
 13 31  1  0
 14 32  1  0
 14 33  1  0
 15 34  1  0
 16 35  1  0
 16 36  1  0
 17 37  1  0
 17 38  1  0
 18 39  1  0
 18 40  1  0
 19 41  1  0
 20 42  1  0
 20 43  1  0
M  END
>  <Energy>  (1193) 
446.20414438274196

>  <compound_id>  (1193) 
42168

>  <target_id>  (1193) 
1

>  <reference_id>  (1193) 
44

>  <inspiration_ids>  (1193) 
[89, 44]

>  <energy_score>  (1193) 
369.94004190390524

>  <distance_score>  (1193) 
8.279990654066824

>  <path>  (1193) 
/opt/xchem-fragalysis-2/maxwin/BulkDock/SCRATCH/511022/C42168-P44/C42168-P44.minimised.mol

>  <scratch_subdir>  (1193) 
/opt/xchem-fragalysis-2/maxwin/BulkDock/SCRATCH/511022/C42168-P44

>  <fragmenstein_runtime>  (1193) 
16.186473608016968

>  <fragmenstein_outcome>  (1193) 
too moved

>  <fragmenstein_mode>  (1193) 
expansion

>  <fragmenstein_error>  (1193) 


$$$$
C42169-P44
     RDKit          3D

 38 41  0  0  0  0  0  0  0  0999 V2000
    3.4846  -18.7122   32.7147 C   0  0  0  0  0  0  0  0  0  0  0  0
    3.6860  -17.2607   32.9978 C   0  0  0  0  0  0  0  0  0  0  0  0
    4.7621  -16.8680   33.8056 C   0  0  0  0  0  0  0  0  0  0  0  0
    4.9408  -15.5109   34.0919 C   0  0  0  0  0  0  0  0  0  0  0  0
    4.1381  -14.5484   33.4455 C   0  0  0  0  0  0  0  0  0  0  0  0
    3.1773  -14.9081   32.5008 C   0  0  0  0  0  0  0  0  0  0  0  0
    2.8902  -16.2803   32.3609 C   0  0  0  0  0  0  0  0  0  0  0  0
    2.7751  -13.8916   31.4387 C   0  0  0  0  0  0  0  0  0  0  0  0
    3.0829  -12.5731   31.3083 C   0  0  0  0  0  0  0  0  0  0  0  0
    2.4945  -11.5128   30.0162 C   0  0  0  0  0  0  0  0  0  0  0  0
    2.3562   -9.9364   29.6228 N   0  0  0  0  0  0  0  0  0  0  0  0
    1.2372   -9.0680   29.4303 C   0  0  0  0  0  0  0  0  0  0  0  0
    0.7896   -7.6672   29.9972 C   0  0  0  0  0  0  0  0  0  0  0  0
    1.6195   -6.3841   29.7337 C   0  0  0  0  0  0  0  0  0  0  0  0
    0.8548   -5.3186   30.5127 C   0  0  0  0  0  0  0  0  0  0  0  0
    0.2416   -6.1003   31.6707 C   0  0  0  0  0  0  0  0  0  0  0  0
    0.6294   -7.5098   31.4624 N   0  0  0  0  0  0  0  0  0  0  0  0
    0.4083   -9.9720   28.9874 N   0  0  0  0  0  0  0  0  0  0  0  0
    1.2203  -11.5736   29.5287 O   0  0  0  0  0  0  0  0  0  0  0  0
    4.4025  -12.4372   32.4360 C   0  0  0  0  0  0  0  0  0  0  0  0
    4.4812  -13.2525   33.6299 O   0  0  0  0  0  0  0  0  0  0  0  0
    4.1272  -18.9793   31.8796 H   0  0  0  0  0  0  0  0  0  0  0  0
    2.4453  -18.9045   32.4631 H   0  0  0  0  0  0  0  0  0  0  0  0
    3.7370  -19.3294   33.5827 H   0  0  0  0  0  0  0  0  0  0  0  0
    5.4202  -17.6118   34.2485 H   0  0  0  0  0  0  0  0  0  0  0  0
    5.7414  -15.1888   34.7504 H   0  0  0  0  0  0  0  0  0  0  0  0
    2.1219  -16.5860   31.6572 H   0  0  0  0  0  0  0  0  0  0  0  0
    2.5064  -14.3822   30.5109 H   0  0  0  0  0  0  0  0  0  0  0  0
   -0.2478   -7.5544   29.6514 H   0  0  0  0  0  0  0  0  0  0  0  0
    1.7878   -6.1058   28.6948 H   0  0  0  0  0  0  0  0  0  0  0  0
    2.6254   -6.4169   30.1581 H   0  0  0  0  0  0  0  0  0  0  0  0
    1.5182   -4.5190   30.8565 H   0  0  0  0  0  0  0  0  0  0  0  0
    0.0678   -4.8759   29.8927 H   0  0  0  0  0  0  0  0  0  0  0  0
   -0.8493   -5.9972   31.6654 H   0  0  0  0  0  0  0  0  0  0  0  0
    0.6140   -5.7493   32.6376 H   0  0  0  0  0  0  0  0  0  0  0  0
   -0.1021   -8.1385   31.7984 H   0  0  0  0  0  0  0  0  0  0  0  0
    4.4716  -11.4178   32.8346 H   0  0  0  0  0  0  0  0  0  0  0  0
    5.3457  -12.6598   31.9130 H   0  0  0  0  0  0  0  0  0  0  0  0
  1  2  1  0
  2  3  2  0
  3  4  1  0
  4  5  2  0
  5  6  1  0
  6  7  2  0
  6  8  1  0
  8  9  2  0
  9 10  1  0
 10 11  2  0
 11 12  1  0
 12 13  1  0
 13 14  1  0
 14 15  1  0
 15 16  1  0
 16 17  1  0
 12 18  2  0
 18 19  1  0
  9 20  1  0
 20 21  1  0
  7  2  1  0
 19 10  1  0
 21  5  1  0
 17 13  1  0
  1 22  1  0
  1 23  1  0
  1 24  1  0
  3 25  1  0
  4 26  1  0
  7 27  1  0
  8 28  1  0
 13 29  1  0
 14 30  1  0
 14 31  1  0
 15 32  1  0
 15 33  1  0
 16 34  1  0
 16 35  1  0
 17 36  1  0
 20 37  1  0
 20 38  1  0
M  END
>  <Energy>  (1194) 
350.88628173302243

>  <compound_id>  (1194) 
42169

>  <target_id>  (1194) 
1

>  <reference_id>  (1194) 
44

>  <inspiration_ids>  (1194) 
[89, 44]

>  <energy_score>  (1194) 
257.51130114532293

>  <distance_score>  (1194) 
8.582582991245339

>  <path>  (1194) 
/opt/xchem-fragalysis-2/maxwin/BulkDock/SCRATCH/511022/C42169-P44/C42169-P44.minimised.mol

>  <scratch_subdir>  (1194) 
/opt/xchem-fragalysis-2/maxwin/BulkDock/SCRATCH/511022/C42169-P44

>  <fragmenstein_runtime>  (1194) 
13.090972423553467

>  <fragmenstein_outcome>  (1194) 
too moved

>  <fragmenstein_mode>  (1194) 
expansion

>  <fragmenstein_error>  (1194) 


$$$$
C57864-P44
     RDKit          3D

 42 46  0  0  0  0  0  0  0  0999 V2000
   -0.1187  -17.1139   34.0797 C   0  0  0  0  0  0  0  0  0  0  0  0
    1.1811  -16.6923   33.4774 C   0  0  0  0  0  0  0  0  0  0  0  0
    2.1591  -17.6327   33.1973 C   0  0  0  0  0  0  0  0  0  0  0  0
    3.1385  -17.2609   32.3323 C   0  0  0  0  0  0  0  0  0  0  0  0
    3.0086  -15.9875   31.7889 C   0  0  0  0  0  0  0  0  0  0  0  0
    2.5941  -14.8878   32.4652 C   0  0  0  0  0  0  0  0  0  0  0  0
    1.4687  -15.3132   33.2121 C   0  0  0  0  0  0  0  0  0  0  0  0
    2.8996  -13.4457   31.8215 C   0  0  0  0  0  0  0  0  0  0  0  0
    2.4827  -13.0365   30.5835 C   0  0  0  0  0  0  0  0  0  0  0  0
    2.2325  -11.4367   29.8083 C   0  0  0  0  0  0  0  0  0  0  0  0
    2.3284   -9.8136   29.6548 N   0  0  0  0  0  0  0  0  0  0  0  0
    1.2396   -8.6290   29.6371 C   0  0  0  0  0  0  0  0  0  0  0  0
    1.0496   -7.1709   30.2820 C   0  0  0  0  0  0  0  0  0  0  0  0
    1.3518   -6.8668   31.7887 C   0  0  0  0  0  0  0  0  0  0  0  0
    1.4461   -5.3281   31.8384 C   0  0  0  0  0  0  0  0  0  0  0  0
    1.2457   -4.9131   30.4350 N   0  0  0  0  0  0  0  0  0  0  0  0
   -0.1943   -5.0832   30.1440 C   0  0  0  0  0  0  0  0  0  0  0  0
   -0.4139   -6.6069   30.2171 C   0  0  0  0  0  0  0  0  0  0  0  0
    1.8738   -6.0245   29.6703 C   0  0  0  0  0  0  0  0  0  0  0  0
    0.3606   -9.2732   28.9736 N   0  0  0  0  0  0  0  0  0  0  0  0
    0.7984  -10.5665   29.1239 O   0  0  0  0  0  0  0  0  0  0  0  0
    2.4218  -14.7603   29.7817 C   0  0  0  0  0  0  0  0  0  0  0  0
    2.9289  -15.9562   30.4336 O   0  0  0  0  0  0  0  0  0  0  0  0
   -0.5503  -16.3070   34.6817 H   0  0  0  0  0  0  0  0  0  0  0  0
    0.0090  -17.9735   34.7450 H   0  0  0  0  0  0  0  0  0  0  0  0
   -0.8305  -17.3681   33.2891 H   0  0  0  0  0  0  0  0  0  0  0  0
    2.1341  -18.6421   33.5694 H   0  0  0  0  0  0  0  0  0  0  0  0
    3.7672  -18.0170   31.8770 H   0  0  0  0  0  0  0  0  0  0  0  0
    0.6933  -14.6169   33.5148 H   0  0  0  0  0  0  0  0  0  0  0  0
    3.7125  -12.9148   32.2915 H   0  0  0  0  0  0  0  0  0  0  0  0
    0.5858   -7.2605   32.4670 H   0  0  0  0  0  0  0  0  0  0  0  0
    2.2999   -7.2125   32.1718 H   0  0  0  0  0  0  0  0  0  0  0  0
    0.7194   -4.8848   32.5287 H   0  0  0  0  0  0  0  0  0  0  0  0
    2.4429   -5.0176   32.1743 H   0  0  0  0  0  0  0  0  0  0  0  0
   -0.8228   -4.5398   30.8591 H   0  0  0  0  0  0  0  0  0  0  0  0
   -0.4189   -4.6741   29.1555 H   0  0  0  0  0  0  0  0  0  0  0  0
   -0.9826   -6.8639   31.1217 H   0  0  0  0  0  0  0  0  0  0  0  0
   -1.0396   -6.9971   29.4193 H   0  0  0  0  0  0  0  0  0  0  0  0
    1.7917   -5.8702   28.5968 H   0  0  0  0  0  0  0  0  0  0  0  0
    2.9474   -6.0874   29.8799 H   0  0  0  0  0  0  0  0  0  0  0  0
    1.5279  -15.2603   29.4224 H   0  0  0  0  0  0  0  0  0  0  0  0
    2.6711  -14.5996   28.7413 H   0  0  0  0  0  0  0  0  0  0  0  0
  1  2  1  0
  2  3  2  0
  3  4  1  0
  4  5  2  0
  5  6  1  0
  6  7  2  0
  6  8  1  0
  8  9  2  0
  9 10  1  0
 10 11  2  0
 11 12  1  0
 12 13  1  0
 13 14  1  0
 14 15  1  0
 15 16  1  0
 16 17  1  0
 17 18  1  0
 16 19  1  0
 12 20  2  0
 20 21  1  0
  9 22  1  0
 22 23  1  0
  7  2  1  0
 21 10  1  0
 23  5  1  0
 18 13  1  0
 19 13  1  0
  1 24  1  0
  1 25  1  0
  1 26  1  0
  3 27  1  0
  4 28  1  0
  7 29  1  0
  8 30  1  0
 14 31  1  0
 14 32  1  0
 15 33  1  0
 15 34  1  0
 17 35  1  0
 17 36  1  0
 18 37  1  0
 18 38  1  0
 19 39  1  0
 19 40  1  0
 22 41  1  0
 22 42  1  0
M  END
>  <Energy>  (1195) 
542.4984083066638

>  <compound_id>  (1195) 
57864

>  <target_id>  (1195) 
1

>  <reference_id>  (1195) 
44

>  <inspiration_ids>  (1195) 
[89, 44]

>  <energy_score>  (1195) 
452.21336456228255

>  <distance_score>  (1195) 
8.021950948582408

>  <path>  (1195) 
/opt/xchem-fragalysis-2/maxwin/BulkDock/SCRATCH/511022/C57864-P44/C57864-P44.minimised.mol

>  <scratch_subdir>  (1195) 
/opt/xchem-fragalysis-2/maxwin/BulkDock/SCRATCH/511022/C57864-P44

>  <fragmenstein_runtime>  (1195) 
13.570338487625122

>  <fragmenstein_outcome>  (1195) 
too moved

>  <fragmenstein_mode>  (1195) 
expansion

>  <fragmenstein_error>  (1195) 


$$$$
C57865-P44
     RDKit          3D

 35 38  0  0  0  0  0  0  0  0999 V2000
   -2.7715  -17.6500   28.0093 C   0  0  0  0  0  0  0  0  0  0  0  0
   -2.3206  -16.8545   29.1983 C   0  0  0  0  0  0  0  0  0  0  0  0
   -1.7050  -17.4936   30.2758 C   0  0  0  0  0  0  0  0  0  0  0  0
   -1.1760  -16.7483   31.3259 C   0  0  0  0  0  0  0  0  0  0  0  0
   -1.3322  -15.3635   31.3387 C   0  0  0  0  0  0  0  0  0  0  0  0
   -2.0449  -14.7061   30.3339 C   0  0  0  0  0  0  0  0  0  0  0  0
   -2.5045  -15.4603   29.2443 C   0  0  0  0  0  0  0  0  0  0  0  0
   -2.3618  -13.2678   30.4911 C   0  0  0  0  0  0  0  0  0  0  0  0
   -1.7094  -12.5461   31.4263 C   0  0  0  0  0  0  0  0  0  0  0  0
   -1.9889  -11.1144   31.6046 C   0  0  0  0  0  0  0  0  0  0  0  0
   -1.2345  -10.0798   31.2367 N   0  0  0  0  0  0  0  0  0  0  0  0
   -1.7156   -8.9798   31.9166 C   0  0  0  0  0  0  0  0  0  0  0  0
   -1.1091   -7.5145   31.8805 C   0  0  0  0  0  0  0  0  0  0  0  0
   -0.3173   -7.0939   30.6333 C   0  0  0  0  0  0  0  0  0  0  0  0
    0.5309   -6.2803   31.6274 C   0  0  0  0  0  0  0  0  0  0  0  0
    0.1501   -7.2902   32.6533 N   0  0  0  0  0  0  0  0  0  0  0  0
   -2.8912   -9.2257   32.4995 N   0  0  0  0  0  0  0  0  0  0  0  0
   -3.0774  -10.6063   32.3136 O   0  0  0  0  0  0  0  0  0  0  0  0
   -0.6556  -13.2928   32.2302 C   0  0  0  0  0  0  0  0  0  0  0  0
   -0.8326  -14.7033   32.4226 O   0  0  0  0  0  0  0  0  0  0  0  0
   -2.5552  -18.7139   28.1339 H   0  0  0  0  0  0  0  0  0  0  0  0
   -2.2623  -17.3015   27.1053 H   0  0  0  0  0  0  0  0  0  0  0  0
   -3.8526  -17.5427   27.8750 H   0  0  0  0  0  0  0  0  0  0  0  0
   -1.6172  -18.5737   30.2850 H   0  0  0  0  0  0  0  0  0  0  0  0
   -0.6613  -17.2410   32.1447 H   0  0  0  0  0  0  0  0  0  0  0  0
   -3.0261  -14.9650   28.4273 H   0  0  0  0  0  0  0  0  0  0  0  0
   -3.1121  -12.8375   29.8342 H   0  0  0  0  0  0  0  0  0  0  0  0
   -1.8657   -6.7852   32.1674 H   0  0  0  0  0  0  0  0  0  0  0  0
    0.2305   -7.9037   30.1383 H   0  0  0  0  0  0  0  0  0  0  0  0
   -0.8619   -6.5122   29.8953 H   0  0  0  0  0  0  0  0  0  0  0  0
    0.1504   -5.2729   31.8331 H   0  0  0  0  0  0  0  0  0  0  0  0
    1.6002   -6.2261   31.4099 H   0  0  0  0  0  0  0  0  0  0  0  0
    0.0024   -6.9228   33.5916 H   0  0  0  0  0  0  0  0  0  0  0  0
   -0.6504  -12.8861   33.2448 H   0  0  0  0  0  0  0  0  0  0  0  0
    0.3261  -13.1441   31.7688 H   0  0  0  0  0  0  0  0  0  0  0  0
  1  2  1  0
  2  3  2  0
  3  4  1  0
  4  5  2  0
  5  6  1  0
  6  7  2  0
  6  8  1  0
  8  9  2  0
  9 10  1  0
 10 11  2  0
 11 12  1  0
 12 13  1  0
 13 14  1  0
 14 15  1  0
 15 16  1  0
 12 17  2  0
 17 18  1  0
  9 19  1  0
 19 20  1  0
  7  2  1  0
 18 10  1  0
 20  5  1  0
 16 13  1  0
  1 21  1  0
  1 22  1  0
  1 23  1  0
  3 24  1  0
  4 25  1  0
  7 26  1  0
  8 27  1  0
 13 28  1  0
 14 29  1  0
 14 30  1  0
 15 31  1  0
 15 32  1  0
 16 33  1  0
 19 34  1  0
 19 35  1  0
M  END
>  <Energy>  (1196) 
84.584026122289785

>  <compound_id>  (1196) 
57865

>  <target_id>  (1196) 
1

>  <reference_id>  (1196) 
44

>  <inspiration_ids>  (1196) 
[89, 44]

>  <energy_score>  (1196) 
-16.792203378760632

>  <distance_score>  (1196) 
9.912092953497082

>  <path>  (1196) 
/opt/xchem-fragalysis-2/maxwin/BulkDock/SCRATCH/511022/C57865-P44/C57865-P44.minimised.mol

>  <scratch_subdir>  (1196) 
/opt/xchem-fragalysis-2/maxwin/BulkDock/SCRATCH/511022/C57865-P44

>  <fragmenstein_runtime>  (1196) 
20.64208722114563

>  <fragmenstein_outcome>  (1196) 
too moved

>  <fragmenstein_mode>  (1196) 
expansion

>  <fragmenstein_error>  (1196) 


$$$$
C57866-P44
     RDKit          3D

 45 47  0  0  0  0  0  0  0  0999 V2000
    3.9237  -19.3177   33.5458 C   0  0  0  0  0  0  0  0  0  0  0  0
    4.2104  -17.8474   33.5372 C   0  0  0  0  0  0  0  0  0  0  0  0
    5.2766  -17.3034   34.2749 C   0  0  0  0  0  0  0  0  0  0  0  0
    5.4510  -15.9043   34.3865 C   0  0  0  0  0  0  0  0  0  0  0  0
    4.5829  -15.0409   33.7223 C   0  0  0  0  0  0  0  0  0  0  0  0
    3.5595  -15.5856   32.9628 C   0  0  0  0  0  0  0  0  0  0  0  0
    3.3417  -16.9713   32.8852 C   0  0  0  0  0  0  0  0  0  0  0  0
    2.7683  -14.6534   32.1922 C   0  0  0  0  0  0  0  0  0  0  0  0
    3.1802  -13.5032   31.5412 C   0  0  0  0  0  0  0  0  0  0  0  0
    2.0829  -12.3990   30.9698 C   0  0  0  0  0  0  0  0  0  0  0  0
    1.0672  -12.5108   31.5714 O   0  0  0  0  0  0  0  0  0  0  0  0
    2.3677  -11.1342   29.8001 N   0  0  0  0  0  0  0  0  0  0  0  0
    1.2428   -9.5157   29.2788 C   0  0  0  0  0  0  0  0  0  0  0  0
    0.9884   -8.0081   30.1638 C   0  0  0  0  0  0  0  0  0  0  0  0
   -0.0181   -6.8914   30.0866 N   0  0  0  0  0  0  0  0  0  0  0  0
   -1.0150   -6.9682   31.1918 C   0  0  0  0  0  0  0  0  0  0  0  0
   -1.1747   -5.6977   32.0898 C   0  0  0  0  0  0  0  0  0  0  0  0
   -1.2265   -4.4185   31.3775 N   0  0  0  0  0  0  0  0  0  0  0  0
   -0.2160   -4.3288   30.3279 C   0  0  0  0  0  0  0  0  0  0  0  0
    0.7118   -5.5627   30.2471 C   0  0  0  0  0  0  0  0  0  0  0  0
    4.4628  -12.9927   32.4014 C   0  0  0  0  0  0  0  0  0  0  0  0
    4.8104  -13.6890   33.6785 O   0  0  0  0  0  0  0  0  0  0  0  0
    4.8514  -19.8940   33.5504 H   0  0  0  0  0  0  0  0  0  0  0  0
    3.3494  -19.5767   34.4409 H   0  0  0  0  0  0  0  0  0  0  0  0
    3.3340  -19.5976   32.6736 H   0  0  0  0  0  0  0  0  0  0  0  0
    5.9542  -17.9739   34.8006 H   0  0  0  0  0  0  0  0  0  0  0  0
    6.2674  -15.4899   34.9668 H   0  0  0  0  0  0  0  0  0  0  0  0
    2.4922  -17.3423   32.3192 H   0  0  0  0  0  0  0  0  0  0  0  0
    1.7541  -14.8446   32.5157 H   0  0  0  0  0  0  0  0  0  0  0  0
    3.2358  -11.2907   29.3733 H   0  0  0  0  0  0  0  0  0  0  0  0
    0.2290   -9.8275   29.0243 H   0  0  0  0  0  0  0  0  0  0  0  0
    1.7587   -9.0533   28.4174 H   0  0  0  0  0  0  0  0  0  0  0  0
    1.1985   -8.1132   31.2211 H   0  0  0  0  0  0  0  0  0  0  0  0
    1.7770   -7.4551   29.6436 H   0  0  0  0  0  0  0  0  0  0  0  0
   -0.8165   -7.8197   31.8556 H   0  0  0  0  0  0  0  0  0  0  0  0
   -1.9811   -7.1875   30.7347 H   0  0  0  0  0  0  0  0  0  0  0  0
   -2.0871   -5.8045   32.6871 H   0  0  0  0  0  0  0  0  0  0  0  0
   -0.3418   -5.6698   32.8044 H   0  0  0  0  0  0  0  0  0  0  0  0
   -1.1428   -3.6419   32.0304 H   0  0  0  0  0  0  0  0  0  0  0  0
    0.3984   -3.4359   30.4916 H   0  0  0  0  0  0  0  0  0  0  0  0
   -0.7254   -4.1882   29.3685 H   0  0  0  0  0  0  0  0  0  0  0  0
    1.3873   -5.4078   29.3962 H   0  0  0  0  0  0  0  0  0  0  0  0
    1.3477   -5.5982   31.1435 H   0  0  0  0  0  0  0  0  0  0  0  0
    4.3082  -11.9701   32.7351 H   0  0  0  0  0  0  0  0  0  0  0  0
    5.3880  -12.9672   31.8215 H   0  0  0  0  0  0  0  0  0  0  0  0
  1  2  1  0
  2  3  2  0
  3  4  1  0
  4  5  2  0
  5  6  1  0
  6  7  2  0
  6  8  1  0
  8  9  2  0
  9 10  1  0
 10 11  2  0
 10 12  1  0
 12 13  1  0
 13 14  1  0
 14 15  1  0
 15 16  1  0
 16 17  1  0
 17 18  1  0
 18 19  1  0
 19 20  1  0
  9 21  1  0
 21 22  1  0
  7  2  1  0
 20 15  1  0
 22  5  1  0
  1 23  1  0
  1 24  1  0
  1 25  1  0
  3 26  1  0
  4 27  1  0
  7 28  1  0
  8 29  1  0
 12 30  1  0
 13 31  1  0
 13 32  1  0
 14 33  1  0
 14 34  1  0
 16 35  1  0
 16 36  1  0
 17 37  1  0
 17 38  1  0
 18 39  1  0
 19 40  1  0
 19 41  1  0
 20 42  1  0
 20 43  1  0
 21 44  1  0
 21 45  1  0
M  END
>  <Energy>  (1197) 
336.00428103590326

>  <compound_id>  (1197) 
57866

>  <target_id>  (1197) 
1

>  <reference_id>  (1197) 
44

>  <inspiration_ids>  (1197) 
[89, 44]

>  <energy_score>  (1197) 
212.02734273876717

>  <distance_score>  (1197) 
7.917437750699734

>  <path>  (1197) 
/opt/xchem-fragalysis-2/maxwin/BulkDock/SCRATCH/511022/C57866-P44/C57866-P44.minimised.mol

>  <scratch_subdir>  (1197) 
/opt/xchem-fragalysis-2/maxwin/BulkDock/SCRATCH/511022/C57866-P44

>  <fragmenstein_runtime>  (1197) 
18.481399536132812

>  <fragmenstein_outcome>  (1197) 
too moved

>  <fragmenstein_mode>  (1197) 
expansion

>  <fragmenstein_error>  (1197) 


$$$$
C57867-P44
     RDKit          3D

 46 48  0  0  0  0  0  0  0  0999 V2000
   -0.1592   -6.0081   29.8822 C   0  0  0  0  0  0  0  0  0  0  0  0
   -0.2395   -7.4851   30.2418 C   0  0  0  0  0  0  0  0  0  0  0  0
    0.6301   -8.6144   30.6676 N   0  0  0  0  0  0  0  0  0  0  0  0
    1.9219   -9.5835   29.7676 C   0  0  0  0  0  0  0  0  0  0  0  0
    2.1992   -9.1985   28.6607 O   0  0  0  0  0  0  0  0  0  0  0  0
    2.6935  -11.4186   30.6864 C   0  0  0  0  0  0  0  0  0  0  0  0
    2.5948  -12.8365   30.9323 C   0  0  0  0  0  0  0  0  0  0  0  0
    3.0386  -13.9652   32.1533 C   0  0  0  0  0  0  0  0  0  0  0  0
    2.8142  -15.3938   32.1530 C   0  0  0  0  0  0  0  0  0  0  0  0
    3.5132  -16.3426   32.9539 C   0  0  0  0  0  0  0  0  0  0  0  0
    3.2662  -17.8204   32.7965 C   0  0  0  0  0  0  0  0  0  0  0  0
    4.5355  -15.8756   33.7847 C   0  0  0  0  0  0  0  0  0  0  0  0
    4.7435  -14.5015   33.8935 C   0  0  0  0  0  0  0  0  0  0  0  0
    4.0529  -13.6237   33.0246 C   0  0  0  0  0  0  0  0  0  0  0  0
    4.7077  -12.4900   32.7154 O   0  0  0  0  0  0  0  0  0  0  0  0
    3.6912  -11.5046   32.4396 C   0  0  0  0  0  0  0  0  0  0  0  0
    1.3117   -7.3012   31.6366 C   0  0  0  0  0  0  0  0  0  0  0  0
    2.1728   -6.0257   31.1557 C   0  0  0  0  0  0  0  0  0  0  0  0
    2.6521   -5.2698   32.4055 C   0  0  0  0  0  0  0  0  0  0  0  0
    1.4613   -4.6617   33.1607 C   0  0  0  0  0  0  0  0  0  0  0  0
    0.2081   -5.4107   33.0402 N   0  0  0  0  0  0  0  0  0  0  0  0
    0.3657   -6.8562   32.8679 C   0  0  0  0  0  0  0  0  0  0  0  0
   -1.0077   -5.7288   29.2712 H   0  0  0  0  0  0  0  0  0  0  0  0
    0.7070   -5.7477   29.2756 H   0  0  0  0  0  0  0  0  0  0  0  0
   -0.2875   -5.3311   30.7237 H   0  0  0  0  0  0  0  0  0  0  0  0
   -1.1142   -7.5663   30.9044 H   0  0  0  0  0  0  0  0  0  0  0  0
   -0.6762   -7.9626   29.3580 H   0  0  0  0  0  0  0  0  0  0  0  0
    2.4287  -13.5887   30.2195 H   0  0  0  0  0  0  0  0  0  0  0  0
    2.2529  -15.8802   31.3599 H   0  0  0  0  0  0  0  0  0  0  0  0
    3.9038  -18.2371   32.0142 H   0  0  0  0  0  0  0  0  0  0  0  0
    2.2147  -18.0080   32.5616 H   0  0  0  0  0  0  0  0  0  0  0  0
    3.4821  -18.3471   33.7324 H   0  0  0  0  0  0  0  0  0  0  0  0
    5.1761  -16.5697   34.3226 H   0  0  0  0  0  0  0  0  0  0  0  0
    5.5812  -14.1259   34.4745 H   0  0  0  0  0  0  0  0  0  0  0  0
    3.2657  -11.3578   33.4148 H   0  0  0  0  0  0  0  0  0  0  0  0
    4.3890  -10.6443   32.5984 H   0  0  0  0  0  0  0  0  0  0  0  0
    2.0323   -7.7447   32.2763 H   0  0  0  0  0  0  0  0  0  0  0  0
    1.6865   -5.2073   30.6431 H   0  0  0  0  0  0  0  0  0  0  0  0
    2.9716   -6.2832   30.4662 H   0  0  0  0  0  0  0  0  0  0  0  0
    3.2007   -5.9467   33.0703 H   0  0  0  0  0  0  0  0  0  0  0  0
    3.3490   -4.4736   32.1190 H   0  0  0  0  0  0  0  0  0  0  0  0
    1.7316   -4.5639   34.2187 H   0  0  0  0  0  0  0  0  0  0  0  0
    1.2782   -3.6468   32.7900 H   0  0  0  0  0  0  0  0  0  0  0  0
   -0.3952   -5.2029   33.8366 H   0  0  0  0  0  0  0  0  0  0  0  0
   -0.6201   -7.3250   32.8112 H   0  0  0  0  0  0  0  0  0  0  0  0
    0.7954   -7.2613   33.7961 H   0  0  0  0  0  0  0  0  0  0  0  0
  1  2  1  0
  2  3  1  0
  3  4  1  0
  4  5  2  0
  4  6  1  0
  6  7  2  0
  7  8  1  0
  8  9  2  0
  9 10  1  0
 10 11  1  0
 10 12  2  0
 12 13  1  0
 13 14  2  0
 14 15  1  0
 15 16  1  0
  3 17  1  0
 17 18  1  0
 18 19  1  0
 19 20  1  0
 20 21  1  0
 21 22  1  0
 16  6  1  0
 22 17  1  0
 14  8  1  0
  1 23  1  0
  1 24  1  0
  1 25  1  0
  2 26  1  0
  2 27  1  0
  7 28  1  0
  9 29  1  0
 11 30  1  0
 11 31  1  0
 11 32  1  0
 12 33  1  0
 13 34  1  0
 16 35  1  0
 16 36  1  0
 17 37  1  0
 18 38  1  0
 18 39  1  0
 19 40  1  0
 19 41  1  0
 20 42  1  0
 20 43  1  0
 21 44  1  0
 22 45  1  0
 22 46  1  0
M  END
>  <Energy>  (1198) 
588.82281213260865

>  <compound_id>  (1198) 
57867

>  <target_id>  (1198) 
1

>  <reference_id>  (1198) 
44

>  <inspiration_ids>  (1198) 
[89, 44]

>  <energy_score>  (1198) 
500.30055409256715

>  <distance_score>  (1198) 
8.764173730382705

>  <path>  (1198) 
/opt/xchem-fragalysis-2/maxwin/BulkDock/SCRATCH/511022/C57867-P44/C57867-P44.minimised.mol

>  <scratch_subdir>  (1198) 
/opt/xchem-fragalysis-2/maxwin/BulkDock/SCRATCH/511022/C57867-P44

>  <fragmenstein_runtime>  (1198) 
19.093174695968628

>  <fragmenstein_outcome>  (1198) 
too moved

>  <fragmenstein_mode>  (1198) 
expansion

>  <fragmenstein_error>  (1198) 


$$$$
C57870-P44
     RDKit          3D

 37 39  0  0  0  0  0  0  0  0999 V2000
    2.3242   -8.9370   28.6806 O   0  0  0  0  0  0  0  0  0  0  0  0
    1.7627   -9.5913   29.5693 C   0  0  0  0  0  0  0  0  0  0  0  0
    2.5719  -11.4301   30.3303 C   0  0  0  0  0  0  0  0  0  0  0  0
    2.3972  -12.7661   30.1681 C   0  0  0  0  0  0  0  0  0  0  0  0
    2.2610  -14.0597   31.1714 C   0  0  0  0  0  0  0  0  0  0  0  0
    1.4717  -15.2289   31.0161 C   0  0  0  0  0  0  0  0  0  0  0  0
    1.5949  -16.3574   31.8272 C   0  0  0  0  0  0  0  0  0  0  0  0
    0.7945  -17.4141   31.6350 F   0  0  0  0  0  0  0  0  0  0  0  0
    2.5770  -16.4229   32.7747 C   0  0  0  0  0  0  0  0  0  0  0  0
    3.3413  -15.2861   32.9937 C   0  0  0  0  0  0  0  0  0  0  0  0
    3.1490  -14.1375   32.2193 C   0  0  0  0  0  0  0  0  0  0  0  0
    4.0834  -13.1478   32.2703 O   0  0  0  0  0  0  0  0  0  0  0  0
    3.3419  -11.9250   32.0763 C   0  0  0  0  0  0  0  0  0  0  0  0
    0.3144   -8.9218   29.9085 N   0  0  0  0  0  0  0  0  0  0  0  0
    0.5735   -7.6613   31.3078 C   0  0  0  0  0  0  0  0  0  0  0  0
    0.9800   -6.0067   30.8984 C   0  0  0  0  0  0  0  0  0  0  0  0
   -0.2374   -5.1085   30.6627 C   0  0  0  0  0  0  0  0  0  0  0  0
   -1.3792   -5.5926   31.4276 N   0  0  0  0  0  0  0  0  0  0  0  0
   -1.6749   -6.9795   31.0447 C   0  0  0  0  0  0  0  0  0  0  0  0
   -0.1776   -7.9436   30.7923 C   0  0  0  0  0  0  0  0  0  0  0  0
    2.9266  -13.0335   29.2590 H   0  0  0  0  0  0  0  0  0  0  0  0
    0.7343  -15.3715   30.2436 H   0  0  0  0  0  0  0  0  0  0  0  0
    2.7238  -17.3393   33.3334 H   0  0  0  0  0  0  0  0  0  0  0  0
    4.1605  -15.3037   33.7061 H   0  0  0  0  0  0  0  0  0  0  0  0
    2.8080  -12.0223   32.9673 H   0  0  0  0  0  0  0  0  0  0  0  0
    4.0257  -11.1864   32.5547 H   0  0  0  0  0  0  0  0  0  0  0  0
    0.3452   -7.8879   32.4885 H   0  0  0  0  0  0  0  0  0  0  0  0
    1.6442   -7.8284   31.5217 H   0  0  0  0  0  0  0  0  0  0  0  0
    1.6452   -6.0196   30.0267 H   0  0  0  0  0  0  0  0  0  0  0  0
    1.5465   -5.6300   31.7605 H   0  0  0  0  0  0  0  0  0  0  0  0
   -0.4946   -5.0706   29.6009 H   0  0  0  0  0  0  0  0  0  0  0  0
   -0.0014   -4.0791   30.9535 H   0  0  0  0  0  0  0  0  0  0  0  0
   -1.1825   -5.5279   32.4262 H   0  0  0  0  0  0  0  0  0  0  0  0
   -2.2834   -6.9859   30.1320 H   0  0  0  0  0  0  0  0  0  0  0  0
   -2.2567   -7.4554   31.8448 H   0  0  0  0  0  0  0  0  0  0  0  0
   -0.4574   -7.5205   29.7399 H   0  0  0  0  0  0  0  0  0  0  0  0
   -0.8961   -8.8129   31.1542 H   0  0  0  0  0  0  0  0  0  0  0  0
  1  2  2  0
  2  3  1  0
  3  4  2  0
  4  5  1  0
  5  6  2  0
  6  7  1  0
  7  8  1  0
  7  9  2  0
  9 10  1  0
 10 11  2  0
 11 12  1  0
 12 13  1  0
  2 14  1  0
 14 15  1  0
 15 16  1  0
 16 17  1  0
 17 18  1  0
 18 19  1  0
 19 20  1  0
 13  3  1  0
 20 14  1  0
 11  5  1  0
  4 21  1  0
  6 22  1  0
  9 23  1  0
 10 24  1  0
 13 25  1  0
 13 26  1  0
 15 27  1  0
 15 28  1  0
 16 29  1  0
 16 30  1  0
 17 31  1  0
 17 32  1  0
 18 33  1  0
 19 34  1  0
 19 35  1  0
 20 36  1  0
 20 37  1  0
M  END
>  <Energy>  (1199) 
949.43621516644123

>  <compound_id>  (1199) 
57870

>  <target_id>  (1199) 
1

>  <reference_id>  (1199) 
44

>  <inspiration_ids>  (1199) 
[89, 44]

>  <energy_score>  (1199) 
880.2697207514123

>  <distance_score>  (1199) 
8.67341105480872

>  <path>  (1199) 
/opt/xchem-fragalysis-2/maxwin/BulkDock/SCRATCH/511022/C57870-P44/C57870-P44.minimised.mol

>  <scratch_subdir>  (1199) 
/opt/xchem-fragalysis-2/maxwin/BulkDock/SCRATCH/511022/C57870-P44

>  <fragmenstein_runtime>  (1199) 
13.809779644012451

>  <fragmenstein_outcome>  (1199) 
too moved

>  <fragmenstein_mode>  (1199) 
expansion

>  <fragmenstein_error>  (1199) 


$$$$
C42170-P44
     RDKit          3D

 43 45  0  0  0  0  0  0  0  0999 V2000
    3.4140  -11.5717   32.3390 O   0  0  0  0  0  0  0  0  0  0  0  0
    3.0674  -12.2185   31.3913 C   0  0  0  0  0  0  0  0  0  0  0  0
    2.3626  -11.4094   29.9090 N   0  0  0  0  0  0  0  0  0  0  0  0
    1.8579   -9.4657   29.5357 C   0  0  0  0  0  0  0  0  0  0  0  0
    0.8512   -8.1749   30.3467 C   0  0  0  0  0  0  0  0  0  0  0  0
    1.3425   -6.6675   30.1207 C   0  0  0  0  0  0  0  0  0  0  0  0
    0.2897   -5.5279   30.2143 C   0  0  0  0  0  0  0  0  0  0  0  0
    0.8018   -4.2065   29.6199 C   0  0  0  0  0  0  0  0  0  0  0  0
   -0.1046   -3.1429   30.2197 C   0  0  0  0  0  0  0  0  0  0  0  0
   -0.6552   -3.7890   31.4829 C   0  0  0  0  0  0  0  0  0  0  0  0
   -0.0064   -5.1018   31.5815 N   0  0  0  0  0  0  0  0  0  0  0  0
    3.2125  -13.9426   31.7936 C   0  0  0  0  0  0  0  0  0  0  0  0
    2.8590  -15.2584   31.6736 C   0  0  0  0  0  0  0  0  0  0  0  0
    3.2463  -16.3649   32.5981 C   0  0  0  0  0  0  0  0  0  0  0  0
    2.6626  -17.6287   32.5460 C   0  0  0  0  0  0  0  0  0  0  0  0
    3.3264  -18.7359   33.0839 C   0  0  0  0  0  0  0  0  0  0  0  0
    2.8388  -19.9684   32.9140 F   0  0  0  0  0  0  0  0  0  0  0  0
    4.5161  -18.6021   33.7720 C   0  0  0  0  0  0  0  0  0  0  0  0
    5.0102  -17.3270   33.9807 C   0  0  0  0  0  0  0  0  0  0  0  0
    4.3481  -16.2206   33.4286 C   0  0  0  0  0  0  0  0  0  0  0  0
    4.8466  -14.9977   33.7563 O   0  0  0  0  0  0  0  0  0  0  0  0
    4.2480  -13.8338   33.1114 C   0  0  0  0  0  0  0  0  0  0  0  0
    2.2253  -12.0719   29.2328 H   0  0  0  0  0  0  0  0  0  0  0  0
    0.8400   -9.7240   29.0851 H   0  0  0  0  0  0  0  0  0  0  0  0
    2.1937   -8.9981   28.5897 H   0  0  0  0  0  0  0  0  0  0  0  0
   -0.1524   -8.2634   29.9065 H   0  0  0  0  0  0  0  0  0  0  0  0
    0.7111   -8.3138   31.4195 H   0  0  0  0  0  0  0  0  0  0  0  0
    1.8659   -6.6113   29.1599 H   0  0  0  0  0  0  0  0  0  0  0  0
    2.1108   -6.4472   30.8735 H   0  0  0  0  0  0  0  0  0  0  0  0
   -0.6481   -5.8279   29.7363 H   0  0  0  0  0  0  0  0  0  0  0  0
    1.8390   -4.0207   29.9289 H   0  0  0  0  0  0  0  0  0  0  0  0
    0.7771   -4.1834   28.5281 H   0  0  0  0  0  0  0  0  0  0  0  0
   -0.9205   -2.8994   29.5301 H   0  0  0  0  0  0  0  0  0  0  0  0
    0.4515   -2.2243   30.4316 H   0  0  0  0  0  0  0  0  0  0  0  0
   -1.7418   -3.9080   31.4033 H   0  0  0  0  0  0  0  0  0  0  0  0
   -0.4434   -3.1877   32.3720 H   0  0  0  0  0  0  0  0  0  0  0  0
   -0.5868   -5.7737   32.0802 H   0  0  0  0  0  0  0  0  0  0  0  0
    2.3967  -15.6583   30.7768 H   0  0  0  0  0  0  0  0  0  0  0  0
    1.7054  -17.7601   32.0553 H   0  0  0  0  0  0  0  0  0  0  0  0
    5.0083  -19.4750   34.1864 H   0  0  0  0  0  0  0  0  0  0  0  0
    5.8962  -17.1842   34.5852 H   0  0  0  0  0  0  0  0  0  0  0  0
    3.7993  -13.3661   33.9647 H   0  0  0  0  0  0  0  0  0  0  0  0
    5.0963  -13.2005   32.8158 H   0  0  0  0  0  0  0  0  0  0  0  0
  1  2  2  0
  2  3  1  0
  3  4  1  0
  4  5  1  0
  5  6  1  0
  6  7  1  0
  7  8  1  0
  8  9  1  0
  9 10  1  0
 10 11  1  0
  2 12  1  0
 12 13  2  0
 13 14  1  0
 14 15  2  0
 15 16  1  0
 16 17  1  0
 16 18  2  0
 18 19  1  0
 19 20  2  0
 20 21  1  0
 21 22  1  0
 11  7  1  0
 22 12  1  0
 20 14  1  0
  3 23  1  0
  4 24  1  0
  4 25  1  0
  5 26  1  0
  5 27  1  0
  6 28  1  0
  6 29  1  0
  7 30  1  0
  8 31  1  0
  8 32  1  0
  9 33  1  0
  9 34  1  0
 10 35  1  0
 10 36  1  0
 11 37  1  0
 13 38  1  0
 15 39  1  0
 18 40  1  0
 19 41  1  0
 22 42  1  0
 22 43  1  0
M  END
>  <Energy>  (1200) 
294.78676320638215

>  <compound_id>  (1200) 
42170

>  <target_id>  (1200) 
1

>  <reference_id>  (1200) 
44

>  <inspiration_ids>  (1200) 
[89, 44]

>  <energy_score>  (1200) 
271.01976345485696

>  <distance_score>  (1200) 
6.943045518116815

>  <path>  (1200) 
/opt/xchem-fragalysis-2/maxwin/BulkDock/SCRATCH/511022/C42170-P44/C42170-P44.minimised.mol

>  <scratch_subdir>  (1200) 
/opt/xchem-fragalysis-2/maxwin/BulkDock/SCRATCH/511022/C42170-P44

>  <fragmenstein_runtime>  (1200) 
17.606826305389404

>  <fragmenstein_outcome>  (1200) 
too moved

>  <fragmenstein_mode>  (1200) 
expansion

>  <fragmenstein_error>  (1200) 


$$$$
C57872-P44
     RDKit          3D

 37 39  0  0  0  0  0  0  0  0999 V2000
    2.9801  -12.5643   30.1150 O   0  0  0  0  0  0  0  0  0  0  0  0
    2.2924  -13.0906   30.9375 C   0  0  0  0  0  0  0  0  0  0  0  0
    0.6545  -12.4031   31.3983 N   0  0  0  0  0  0  0  0  0  0  0  0
   -0.6276  -10.5516   30.5064 S   0  0  0  0  0  0  0  0  0  0  0  0
   -1.7804  -11.1434   29.8488 O   0  0  0  0  0  0  0  0  0  0  0  0
    0.0593   -9.7167   29.4464 O   0  0  0  0  0  0  0  0  0  0  0  0
   -1.0179   -8.9087   31.7862 C   0  0  0  0  0  0  0  0  0  0  0  0
   -1.6270   -7.6872   30.9478 C   0  0  0  0  0  0  0  0  0  0  0  0
   -1.0458   -6.3579   31.4123 C   0  0  0  0  0  0  0  0  0  0  0  0
   -0.3263   -6.7349   32.6026 N   0  0  0  0  0  0  0  0  0  0  0  0
    0.1676   -8.0888   32.2964 C   0  0  0  0  0  0  0  0  0  0  0  0
    2.8787  -14.8676   31.7275 C   0  0  0  0  0  0  0  0  0  0  0  0
    3.3467  -16.2868   32.2791 C   0  0  0  0  0  0  0  0  0  0  0  0
    3.9157  -18.0335   31.8227 C   0  0  0  0  0  0  0  0  0  0  0  0
    4.3563  -19.0993   31.1201 C   0  0  0  0  0  0  0  0  0  0  0  0
    5.0132  -19.9528   29.4339 C   0  0  0  0  0  0  0  0  0  0  0  0
    4.4540  -19.3634   28.0790 F   0  0  0  0  0  0  0  0  0  0  0  0
    5.3260  -22.0891   29.6240 C   0  0  0  0  0  0  0  0  0  0  0  0
    5.4243  -19.8796   29.6004 C   0  0  0  0  0  0  0  0  0  0  0  0
    4.4946  -18.3698   30.6154 C   0  0  0  0  0  0  0  0  0  0  0  0
    3.7583  -16.8721   30.1781 O   0  0  0  0  0  0  0  0  0  0  0  0
    2.5848  -15.9430   30.5359 C   0  0  0  0  0  0  0  0  0  0  0  0
    0.1700  -13.0990   32.0973 H   0  0  0  0  0  0  0  0  0  0  0  0
   -1.7579   -9.1974   32.5205 H   0  0  0  0  0  0  0  0  0  0  0  0
   -2.7075   -7.6347   31.1302 H   0  0  0  0  0  0  0  0  0  0  0  0
   -1.3962   -7.7606   29.8824 H   0  0  0  0  0  0  0  0  0  0  0  0
   -0.3676   -5.9463   30.6557 H   0  0  0  0  0  0  0  0  0  0  0  0
   -1.8208   -5.6145   31.6201 H   0  0  0  0  0  0  0  0  0  0  0  0
    0.4417   -6.0902   32.7841 H   0  0  0  0  0  0  0  0  0  0  0  0
    0.5710   -8.4457   33.2345 H   0  0  0  0  0  0  0  0  0  0  0  0
    0.9406   -7.9781   31.5344 H   0  0  0  0  0  0  0  0  0  0  0  0
    3.5512  -16.2796   33.3448 H   0  0  0  0  0  0  0  0  0  0  0  0
    4.4259  -19.8012   32.0665 H   0  0  0  0  0  0  0  0  0  0  0  0
    5.0961  -22.8568   30.4956 H   0  0  0  0  0  0  0  0  0  0  0  0
    6.6822  -19.3688   29.9122 H   0  0  0  0  0  0  0  0  0  0  0  0
    2.3499  -15.4247   29.6022 H   0  0  0  0  0  0  0  0  0  0  0  0
    1.7052  -16.5528   30.8115 H   0  0  0  0  0  0  0  0  0  0  0  0
  1  2  2  0
  2  3  1  0
  3  4  1  0
  4  5  2  0
  4  6  2  0
  4  7  1  0
  7  8  1  0
  8  9  1  0
  9 10  1  0
 10 11  1  0
  2 12  1  0
 12 13  2  0
 13 14  1  0
 14 15  2  0
 15 16  1  0
 16 17  1  0
 16 18  2  0
 18 19  1  0
 19 20  2  0
 20 21  1  0
 21 22  1  0
 11  7  1  0
 22 12  1  0
 20 14  1  0
  3 23  1  0
  7 24  1  0
  8 25  1  0
  8 26  1  0
  9 27  1  0
  9 28  1  0
 10 29  1  0
 11 30  1  0
 11 31  1  0
 13 32  1  0
 15 33  1  0
 18 34  1  0
 19 35  1  0
 22 36  1  0
 22 37  1  0
M  END
>  <Energy>  (1201) 
2151.5111143111612

>  <compound_id>  (1201) 
57872

>  <target_id>  (1201) 
1

>  <reference_id>  (1201) 
44

>  <inspiration_ids>  (1201) 
[89, 44]

>  <energy_score>  (1201) 
2220.534376874752

>  <distance_score>  (1201) 
7.20603716296551

>  <path>  (1201) 
/opt/xchem-fragalysis-2/maxwin/BulkDock/SCRATCH/511022/C57872-P44/C57872-P44.minimised.mol

>  <scratch_subdir>  (1201) 
/opt/xchem-fragalysis-2/maxwin/BulkDock/SCRATCH/511022/C57872-P44

>  <fragmenstein_runtime>  (1201) 
14.876207828521729

>  <fragmenstein_outcome>  (1201) 
too moved

>  <fragmenstein_mode>  (1201) 
expansion

>  <fragmenstein_error>  (1201) 


$$$$
C42171-P44
     RDKit          3D

 40 42  0  0  0  0  0  0  0  0999 V2000
    1.9837  -12.3213   30.6548 C   0  0  0  0  0  0  0  0  0  0  0  0
    2.5330  -13.0791   31.4278 N   0  0  0  0  0  0  0  0  0  0  0  0
    1.9848  -11.7826   29.8949 C   0  0  0  0  0  0  0  0  0  0  0  0
    0.6836  -10.1151   29.3339 C   0  0  0  0  0  0  0  0  0  0  0  0
    1.2551   -8.6846   29.2220 C   0  0  0  0  0  0  0  0  0  0  0  0
    0.6399   -7.7089   30.2268 C   0  0  0  0  0  0  0  0  0  0  0  0
   -0.5583   -8.4120   30.7759 C   0  0  0  0  0  0  0  0  0  0  0  0
   -0.7128   -9.6642   30.0281 N   0  0  0  0  0  0  0  0  0  0  0  0
    2.7840  -14.5278   31.3653 C   0  0  0  0  0  0  0  0  0  0  0  0
    2.6193  -15.3231   30.4727 O   0  0  0  0  0  0  0  0  0  0  0  0
    3.2271  -15.1159   32.6845 C   0  0  0  0  0  0  0  0  0  0  0  0
    2.9102  -16.4220   32.6579 C   0  0  0  0  0  0  0  0  0  0  0  0
    3.8260  -17.3491   33.2566 C   0  0  0  0  0  0  0  0  0  0  0  0
    3.6138  -18.7017   33.0617 C   0  0  0  0  0  0  0  0  0  0  0  0
    4.4755  -19.5921   33.6483 C   0  0  0  0  0  0  0  0  0  0  0  0
    4.2932  -20.8828   33.4182 F   0  0  0  0  0  0  0  0  0  0  0  0
    5.5127  -19.1787   34.4574 C   0  0  0  0  0  0  0  0  0  0  0  0
    5.6885  -17.8166   34.6723 C   0  0  0  0  0  0  0  0  0  0  0  0
    4.9033  -16.8848   34.0068 C   0  0  0  0  0  0  0  0  0  0  0  0
    5.1387  -15.5486   34.2417 O   0  0  0  0  0  0  0  0  0  0  0  0
    4.2517  -14.5557   33.6191 C   0  0  0  0  0  0  0  0  0  0  0  0
    2.7819  -11.7488   31.3893 H   0  0  0  0  0  0  0  0  0  0  0  0
    0.6859  -12.2098   30.8226 H   0  0  0  0  0  0  0  0  0  0  0  0
    1.3461  -12.5511   31.6052 H   0  0  0  0  0  0  0  0  0  0  0  0
    2.7272  -10.9904   29.8549 H   0  0  0  0  0  0  0  0  0  0  0  0
    2.8148  -12.2477   29.1110 H   0  0  0  0  0  0  0  0  0  0  0  0
    0.2392  -10.1505   28.3483 H   0  0  0  0  0  0  0  0  0  0  0  0
    0.9402   -8.5356   28.2200 H   0  0  0  0  0  0  0  0  0  0  0  0
    2.2605   -8.4754   28.9471 H   0  0  0  0  0  0  0  0  0  0  0  0
    1.3012   -7.4735   31.0634 H   0  0  0  0  0  0  0  0  0  0  0  0
    0.3827   -6.7325   29.8135 H   0  0  0  0  0  0  0  0  0  0  0  0
   -0.4369   -8.6079   31.8457 H   0  0  0  0  0  0  0  0  0  0  0  0
   -1.4397   -7.7711   30.6874 H   0  0  0  0  0  0  0  0  0  0  0  0
   -0.9196  -10.4497   30.6412 H   0  0  0  0  0  0  0  0  0  0  0  0
    2.1539  -16.8290   31.9924 H   0  0  0  0  0  0  0  0  0  0  0  0
    2.7944  -19.0650   32.4592 H   0  0  0  0  0  0  0  0  0  0  0  0
    6.1340  -19.9113   34.9585 H   0  0  0  0  0  0  0  0  0  0  0  0
    6.3896  -17.5019   35.4293 H   0  0  0  0  0  0  0  0  0  0  0  0
    3.7822  -14.0105   34.4385 H   0  0  0  0  0  0  0  0  0  0  0  0
    4.8806  -13.7839   33.1599 H   0  0  0  0  0  0  0  0  0  0  0  0
  1  2  1  0
  2  3  1  0
  3  4  1  0
  4  5  1  0
  5  6  1  0
  6  7  1  0
  7  8  1  0
  2  9  1  0
  9 10  2  0
  9 11  1  0
 11 12  2  0
 12 13  1  0
 13 14  2  0
 14 15  1  0
 15 16  1  0
 15 17  2  0
 17 18  1  0
 18 19  2  0
 19 20  1  0
 20 21  1  0
  8  4  1  0
 21 11  1  0
 19 13  1  0
  1 22  1  0
  1 23  1  0
  1 24  1  0
  3 25  1  0
  3 26  1  0
  4 27  1  0
  5 28  1  0
  5 29  1  0
  6 30  1  0
  6 31  1  0
  7 32  1  0
  7 33  1  0
  8 34  1  0
 12 35  1  0
 14 36  1  0
 17 37  1  0
 18 38  1  0
 21 39  1  0
 21 40  1  0
M  END
>  <Energy>  (1202) 
1118.8852276397665

>  <compound_id>  (1202) 
42171

>  <target_id>  (1202) 
1

>  <reference_id>  (1202) 
44

>  <inspiration_ids>  (1202) 
[89, 44]

>  <energy_score>  (1202) 
1049.2662310185842

>  <distance_score>  (1202) 
9.073957507244614

>  <path>  (1202) 
/opt/xchem-fragalysis-2/maxwin/BulkDock/SCRATCH/511022/C42171-P44/C42171-P44.minimised.mol

>  <scratch_subdir>  (1202) 
/opt/xchem-fragalysis-2/maxwin/BulkDock/SCRATCH/511022/C42171-P44

>  <fragmenstein_runtime>  (1202) 
16.317803382873535

>  <fragmenstein_outcome>  (1202) 
too moved

>  <fragmenstein_mode>  (1202) 
expansion

>  <fragmenstein_error>  (1202) 


$$$$
C57873-P44
     RDKit          3D

 40 42  0  0  0  0  0  0  0  0999 V2000
    1.5122   -7.4207   31.5146 C   0  0  0  0  0  0  0  0  0  0  0  0
    0.7913   -8.5113   30.6686 N   0  0  0  0  0  0  0  0  0  0  0  0
    0.0075   -7.2226   30.2281 C   0  0  0  0  0  0  0  0  0  0  0  0
   -0.6434   -5.9712   31.0187 C   0  0  0  0  0  0  0  0  0  0  0  0
    0.1991   -4.8322   31.6821 C   0  0  0  0  0  0  0  0  0  0  0  0
    0.4618   -3.7634   30.6246 C   0  0  0  0  0  0  0  0  0  0  0  0
   -0.3215   -4.1944   29.4846 N   0  0  0  0  0  0  0  0  0  0  0  0
   -1.3697   -5.0625   30.0116 C   0  0  0  0  0  0  0  0  0  0  0  0
    1.9585   -9.6157   29.7583 C   0  0  0  0  0  0  0  0  0  0  0  0
    2.2377   -9.2349   28.6556 O   0  0  0  0  0  0  0  0  0  0  0  0
    2.6569  -11.5489   30.5035 C   0  0  0  0  0  0  0  0  0  0  0  0
    2.3029  -12.8877   30.8994 C   0  0  0  0  0  0  0  0  0  0  0  0
    2.8707  -14.3833   31.7762 C   0  0  0  0  0  0  0  0  0  0  0  0
    2.6379  -15.8016   31.5455 C   0  0  0  0  0  0  0  0  0  0  0  0
    3.1321  -16.8585   32.3549 C   0  0  0  0  0  0  0  0  0  0  0  0
    2.7964  -18.1424   32.1637 F   0  0  0  0  0  0  0  0  0  0  0  0
    4.0430  -16.6005   33.3429 C   0  0  0  0  0  0  0  0  0  0  0  0
    4.2858  -15.2692   33.6503 C   0  0  0  0  0  0  0  0  0  0  0  0
    3.6887  -14.2404   32.8784 C   0  0  0  0  0  0  0  0  0  0  0  0
    4.0664  -13.0012   33.1799 O   0  0  0  0  0  0  0  0  0  0  0  0
    3.7945  -12.0531   32.0991 C   0  0  0  0  0  0  0  0  0  0  0  0
    1.9982   -6.6156   30.9389 H   0  0  0  0  0  0  0  0  0  0  0  0
    0.7687   -7.1319   32.2714 H   0  0  0  0  0  0  0  0  0  0  0  0
    2.2271   -7.6216   32.3006 H   0  0  0  0  0  0  0  0  0  0  0  0
   -0.8079   -7.6695   29.6494 H   0  0  0  0  0  0  0  0  0  0  0  0
    0.7068   -6.7367   29.5456 H   0  0  0  0  0  0  0  0  0  0  0  0
   -1.2939   -6.4180   31.7678 H   0  0  0  0  0  0  0  0  0  0  0  0
    1.1227   -5.1163   32.1863 H   0  0  0  0  0  0  0  0  0  0  0  0
   -0.4274   -4.3829   32.4670 H   0  0  0  0  0  0  0  0  0  0  0  0
    0.1484   -2.7774   30.9835 H   0  0  0  0  0  0  0  0  0  0  0  0
    1.5216   -3.7170   30.3575 H   0  0  0  0  0  0  0  0  0  0  0  0
   -0.6980   -3.4079   28.9563 H   0  0  0  0  0  0  0  0  0  0  0  0
   -1.8539   -5.6314   29.2198 H   0  0  0  0  0  0  0  0  0  0  0  0
   -2.1215   -4.4387   30.5068 H   0  0  0  0  0  0  0  0  0  0  0  0
    1.3255  -12.7564   31.3183 H   0  0  0  0  0  0  0  0  0  0  0  0
    2.1011  -16.1268   30.6629 H   0  0  0  0  0  0  0  0  0  0  0  0
    4.5083  -17.4191   33.8798 H   0  0  0  0  0  0  0  0  0  0  0  0
    4.9821  -15.0040   34.4414 H   0  0  0  0  0  0  0  0  0  0  0  0
    4.1178  -11.1397   32.6378 H   0  0  0  0  0  0  0  0  0  0  0  0
    4.6944  -12.5578   31.6350 H   0  0  0  0  0  0  0  0  0  0  0  0
  1  2  1  0
  2  3  1  0
  3  4  1  0
  4  5  1  0
  5  6  1  0
  6  7  1  0
  7  8  1  0
  2  9  1  0
  9 10  2  0
  9 11  1  0
 11 12  2  0
 12 13  1  0
 13 14  2  0
 14 15  1  0
 15 16  1  0
 15 17  2  0
 17 18  1  0
 18 19  2  0
 19 20  1  0
 20 21  1  0
  8  4  1  0
 21 11  1  0
 19 13  1  0
  1 22  1  0
  1 23  1  0
  1 24  1  0
  3 25  1  0
  3 26  1  0
  4 27  1  0
  5 28  1  0
  5 29  1  0
  6 30  1  0
  6 31  1  0
  7 32  1  0
  8 33  1  0
  8 34  1  0
 12 35  1  0
 14 36  1  0
 17 37  1  0
 18 38  1  0
 21 39  1  0
 21 40  1  0
M  END
>  <Energy>  (1203) 
608.64540275246043

>  <compound_id>  (1203) 
57873

>  <target_id>  (1203) 
1

>  <reference_id>  (1203) 
44

>  <inspiration_ids>  (1203) 
[89, 44]

>  <energy_score>  (1203) 
564.2552133490296

>  <distance_score>  (1203) 
7.58195102323374

>  <path>  (1203) 
/opt/xchem-fragalysis-2/maxwin/BulkDock/SCRATCH/511022/C57873-P44/C57873-P44.minimised.mol

>  <scratch_subdir>  (1203) 
/opt/xchem-fragalysis-2/maxwin/BulkDock/SCRATCH/511022/C57873-P44

>  <fragmenstein_runtime>  (1203) 
18.16019582748413

>  <fragmenstein_outcome>  (1203) 
too moved

>  <fragmenstein_mode>  (1203) 
expansion

>  <fragmenstein_error>  (1203) 


$$$$
C57874-P44
     RDKit          3D

 37 40  0  0  0  0  0  0  0  0999 V2000
    6.7342  -18.6918   34.6317 F   0  0  0  0  0  0  0  0  0  0  0  0
    5.5720  -18.2613   34.1408 C   0  0  0  0  0  0  0  0  0  0  0  0
    4.6493  -19.2361   33.8055 C   0  0  0  0  0  0  0  0  0  0  0  0
    3.4504  -18.8429   33.2663 C   0  0  0  0  0  0  0  0  0  0  0  0
    3.2137  -17.4865   33.0803 C   0  0  0  0  0  0  0  0  0  0  0  0
    4.1169  -16.4616   33.4371 C   0  0  0  0  0  0  0  0  0  0  0  0
    5.3205  -16.8826   33.9922 C   0  0  0  0  0  0  0  0  0  0  0  0
    3.7051  -14.9986   33.1922 C   0  0  0  0  0  0  0  0  0  0  0  0
    2.8792  -14.7934   32.1331 C   0  0  0  0  0  0  0  0  0  0  0  0
    2.7128  -13.4954   31.3141 C   0  0  0  0  0  0  0  0  0  0  0  0
    2.3612  -12.2090   31.3202 N   0  0  0  0  0  0  0  0  0  0  0  0
    2.4104  -11.4708   29.9043 C   0  0  0  0  0  0  0  0  0  0  0  0
    1.8459   -9.7554   29.3726 N   0  0  0  0  0  0  0  0  0  0  0  0
    0.2900   -9.0608   29.7678 C   0  0  0  0  0  0  0  0  0  0  0  0
    0.4609   -7.6224   30.3901 C   0  0  0  0  0  0  0  0  0  0  0  0
    1.3203   -6.6060   29.7435 N   0  0  0  0  0  0  0  0  0  0  0  0
    2.3477   -7.0900   28.8154 C   0  0  0  0  0  0  0  0  0  0  0  0
    2.1394   -8.5726   28.3123 C   0  0  0  0  0  0  0  0  0  0  0  0
    3.1301  -12.4439   29.3309 N   0  0  0  0  0  0  0  0  0  0  0  0
    2.7368  -13.6714   29.9900 O   0  0  0  0  0  0  0  0  0  0  0  0
    2.4892  -16.1709   31.4906 C   0  0  0  0  0  0  0  0  0  0  0  0
    2.0560  -17.1325   32.4528 O   0  0  0  0  0  0  0  0  0  0  0  0
    4.8768  -20.2821   33.9760 H   0  0  0  0  0  0  0  0  0  0  0  0
    2.7247  -19.5817   32.9687 H   0  0  0  0  0  0  0  0  0  0  0  0
    6.0713  -16.1585   34.2787 H   0  0  0  0  0  0  0  0  0  0  0  0
    4.2439  -14.2056   33.6953 H   0  0  0  0  0  0  0  0  0  0  0  0
   -0.2764   -9.0342   28.8337 H   0  0  0  0  0  0  0  0  0  0  0  0
   -0.4040   -9.6526   30.3885 H   0  0  0  0  0  0  0  0  0  0  0  0
   -0.5432   -7.1914   30.4876 H   0  0  0  0  0  0  0  0  0  0  0  0
    0.8212   -7.7322   31.4173 H   0  0  0  0  0  0  0  0  0  0  0  0
    0.7680   -5.8374   29.3536 H   0  0  0  0  0  0  0  0  0  0  0  0
    2.3611   -6.4366   27.9338 H   0  0  0  0  0  0  0  0  0  0  0  0
    3.3519   -6.9124   29.2139 H   0  0  0  0  0  0  0  0  0  0  0  0
    2.7475   -8.7818   27.4139 H   0  0  0  0  0  0  0  0  0  0  0  0
    1.1861   -8.5126   27.8916 H   0  0  0  0  0  0  0  0  0  0  0  0
    3.3467  -16.5786   30.9655 H   0  0  0  0  0  0  0  0  0  0  0  0
    1.7825  -16.2108   30.6771 H   0  0  0  0  0  0  0  0  0  0  0  0
  1  2  1  0
  2  3  2  0
  3  4  1  0
  4  5  2  0
  5  6  1  0
  6  7  2  0
  6  8  1  0
  8  9  2  0
  9 10  1  0
 10 11  2  0
 11 12  1  0
 12 13  1  0
 13 14  1  0
 14 15  1  0
 15 16  1  0
 16 17  1  0
 17 18  1  0
 12 19  2  0
 19 20  1  0
  9 21  1  0
 21 22  1  0
  7  2  1  0
 20 10  1  0
 22  5  1  0
 18 13  1  0
  3 23  1  0
  4 24  1  0
  7 25  1  0
  8 26  1  0
 14 27  1  0
 14 28  1  0
 15 29  1  0
 15 30  1  0
 16 31  1  0
 17 32  1  0
 17 33  1  0
 18 34  1  0
 18 35  1  0
 21 36  1  0
 21 37  1  0
M  END
>  <Energy>  (1204) 
334.48474562934695

>  <compound_id>  (1204) 
57874

>  <target_id>  (1204) 
1

>  <reference_id>  (1204) 
44

>  <inspiration_ids>  (1204) 
[89, 44]

>  <energy_score>  (1204) 
253.97681549030358

>  <distance_score>  (1204) 
9.027826309200455

>  <path>  (1204) 
/opt/xchem-fragalysis-2/maxwin/BulkDock/SCRATCH/511022/C57874-P44/C57874-P44.minimised.mol

>  <scratch_subdir>  (1204) 
/opt/xchem-fragalysis-2/maxwin/BulkDock/SCRATCH/511022/C57874-P44

>  <fragmenstein_runtime>  (1204) 
11.808820486068726

>  <fragmenstein_outcome>  (1204) 
too moved

>  <fragmenstein_mode>  (1204) 
expansion

>  <fragmenstein_error>  (1204) 


$$$$
C42172-P44
     RDKit          3D

 35 38  0  0  0  0  0  0  0  0999 V2000
    1.8372  -22.7476   28.8322 F   0  0  0  0  0  0  0  0  0  0  0  0
    1.6295  -21.5125   28.3052 C   0  0  0  0  0  0  0  0  0  0  0  0
    3.0909  -21.1773   27.2449 C   0  0  0  0  0  0  0  0  0  0  0  0
    4.0569  -19.6693   28.0531 C   0  0  0  0  0  0  0  0  0  0  0  0
    4.1447  -19.1423   29.9096 C   0  0  0  0  0  0  0  0  0  0  0  0
    2.8917  -19.4817   30.9750 C   0  0  0  0  0  0  0  0  0  0  0  0
    1.9109  -20.5335   29.7614 C   0  0  0  0  0  0  0  0  0  0  0  0
    2.2371  -17.8339   31.8618 C   0  0  0  0  0  0  0  0  0  0  0  0
    3.0190  -16.5875   31.6653 C   0  0  0  0  0  0  0  0  0  0  0  0
    2.7868  -14.7720   31.3116 C   0  0  0  0  0  0  0  0  0  0  0  0
    2.4101  -13.8592   30.1659 N   0  0  0  0  0  0  0  0  0  0  0  0
    1.9767  -12.0305   30.1524 C   0  0  0  0  0  0  0  0  0  0  0  0
    0.7612  -10.4000   29.3624 C   0  0  0  0  0  0  0  0  0  0  0  0
    1.2726   -8.8576   29.2670 C   0  0  0  0  0  0  0  0  0  0  0  0
    0.6682   -7.9102   30.2898 C   0  0  0  0  0  0  0  0  0  0  0  0
   -0.7226   -8.4131   30.3512 C   0  0  0  0  0  0  0  0  0  0  0  0
   -0.7240   -9.9005   30.1940 N   0  0  0  0  0  0  0  0  0  0  0  0
    2.7294  -12.1745   31.3678 N   0  0  0  0  0  0  0  0  0  0  0  0
    3.3086  -13.4996   31.9208 O   0  0  0  0  0  0  0  0  0  0  0  0
    4.2797  -17.5821   32.0685 C   0  0  0  0  0  0  0  0  0  0  0  0
    4.9174  -18.5400   30.9058 O   0  0  0  0  0  0  0  0  0  0  0  0
    3.2613  -21.6550   26.2987 H   0  0  0  0  0  0  0  0  0  0  0  0
    4.9017  -19.4255   27.4533 H   0  0  0  0  0  0  0  0  0  0  0  0
    1.2041  -19.7477   29.6912 H   0  0  0  0  0  0  0  0  0  0  0  0
    1.1468  -17.8021   31.8253 H   0  0  0  0  0  0  0  0  0  0  0  0
    0.3003  -10.2880   28.3724 H   0  0  0  0  0  0  0  0  0  0  0  0
    0.7852   -8.6376   28.3407 H   0  0  0  0  0  0  0  0  0  0  0  0
    2.2371   -8.6036   28.8992 H   0  0  0  0  0  0  0  0  0  0  0  0
    0.7186   -6.8632   29.9769 H   0  0  0  0  0  0  0  0  0  0  0  0
    1.1058   -7.9380   31.2849 H   0  0  0  0  0  0  0  0  0  0  0  0
   -1.2610   -7.9366   29.5299 H   0  0  0  0  0  0  0  0  0  0  0  0
   -1.2215   -8.1299   31.2841 H   0  0  0  0  0  0  0  0  0  0  0  0
   -0.4921  -10.2693   31.1193 H   0  0  0  0  0  0  0  0  0  0  0  0
    5.0532  -17.0511   32.6409 H   0  0  0  0  0  0  0  0  0  0  0  0
    4.0447  -18.3177   32.8660 H   0  0  0  0  0  0  0  0  0  0  0  0
  1  2  1  0
  2  3  2  0
  3  4  1  0
  4  5  2  0
  5  6  1  0
  6  7  2  0
  6  8  1  0
  8  9  2  0
  9 10  1  0
 10 11  2  0
 11 12  1  0
 12 13  1  0
 13 14  1  0
 14 15  1  0
 15 16  1  0
 16 17  1  0
 12 18  2  0
 18 19  1  0
  9 20  1  0
 20 21  1  0
  7  2  1  0
 19 10  1  0
 21  5  1  0
 17 13  1  0
  3 22  1  0
  4 23  1  0
  7 24  1  0
  8 25  1  0
 13 26  1  0
 14 27  1  0
 14 28  1  0
 15 29  1  0
 15 30  1  0
 16 31  1  0
 16 32  1  0
 17 33  1  0
 20 34  1  0
 20 35  1  0
M  END
>  <Energy>  (1205) 
1227.5508278702548

>  <compound_id>  (1205) 
42172

>  <target_id>  (1205) 
1

>  <reference_id>  (1205) 
44

>  <inspiration_ids>  (1205) 
[89, 44]

>  <energy_score>  (1205) 
1137.716567114993

>  <distance_score>  (1205) 
8.05807221337945

>  <path>  (1205) 
/opt/xchem-fragalysis-2/maxwin/BulkDock/SCRATCH/511022/C42172-P44/C42172-P44.minimised.mol

>  <scratch_subdir>  (1205) 
/opt/xchem-fragalysis-2/maxwin/BulkDock/SCRATCH/511022/C42172-P44

>  <fragmenstein_runtime>  (1205) 
9.781565189361572

>  <fragmenstein_outcome>  (1205) 
too moved

>  <fragmenstein_mode>  (1205) 
expansion

>  <fragmenstein_error>  (1205) 


$$$$
C57875-P44
     RDKit          3D

 34 36  0  0  0  0  0  0  0  0999 V2000
   -1.3737  -10.7134   31.4539 O   0  0  0  0  0  0  0  0  0  0  0  0
   -0.4145  -10.6731   30.8731 C   0  0  0  0  0  0  0  0  0  0  0  0
   -0.0101   -9.3551   29.9777 N   0  0  0  0  0  0  0  0  0  0  0  0
   -0.6634   -8.0233   29.8362 C   0  0  0  0  0  0  0  0  0  0  0  0
    0.4226   -6.9080   30.0838 C   0  0  0  0  0  0  0  0  0  0  0  0
    0.4275   -6.6072   31.5636 C   0  0  0  0  0  0  0  0  0  0  0  0
   -0.9912   -6.4784   31.8014 N   0  0  0  0  0  0  0  0  0  0  0  0
   -1.6047   -7.5755   31.0352 C   0  0  0  0  0  0  0  0  0  0  0  0
    0.8856  -12.3310   31.2132 C   0  0  0  0  0  0  0  0  0  0  0  0
    0.6401  -13.4432   32.4415 C   0  0  0  0  0  0  0  0  0  0  0  0
    1.6374  -14.7486   32.8405 C   0  0  0  0  0  0  0  0  0  0  0  0
    1.1619  -16.0768   32.9598 C   0  0  0  0  0  0  0  0  0  0  0  0
    2.0995  -17.0992   32.8699 C   0  0  0  0  0  0  0  0  0  0  0  0
    1.7419  -18.3519   32.6099 F   0  0  0  0  0  0  0  0  0  0  0  0
    3.4402  -16.8366   33.0516 C   0  0  0  0  0  0  0  0  0  0  0  0
    3.8335  -15.5061   33.1499 C   0  0  0  0  0  0  0  0  0  0  0  0
    2.9934  -14.5405   32.6306 C   0  0  0  0  0  0  0  0  0  0  0  0
    3.4383  -13.3490   32.0110 O   0  0  0  0  0  0  0  0  0  0  0  0
    2.4720  -12.7723   30.9244 C   0  0  0  0  0  0  0  0  0  0  0  0
    0.9122   -9.4907   29.6133 H   0  0  0  0  0  0  0  0  0  0  0  0
   -1.1756   -7.9677   28.8945 H   0  0  0  0  0  0  0  0  0  0  0  0
    0.1289   -5.9674   29.6012 H   0  0  0  0  0  0  0  0  0  0  0  0
    1.4136   -7.1802   29.7194 H   0  0  0  0  0  0  0  0  0  0  0  0
    0.8564   -7.4263   32.1479 H   0  0  0  0  0  0  0  0  0  0  0  0
    0.9652   -5.6843   31.7975 H   0  0  0  0  0  0  0  0  0  0  0  0
   -1.2123   -6.5854   32.7926 H   0  0  0  0  0  0  0  0  0  0  0  0
   -1.8365   -8.3975   31.7148 H   0  0  0  0  0  0  0  0  0  0  0  0
   -2.5435   -7.1690   30.6438 H   0  0  0  0  0  0  0  0  0  0  0  0
   -0.2177  -13.5999   33.0910 H   0  0  0  0  0  0  0  0  0  0  0  0
    0.1043  -16.3002   32.8982 H   0  0  0  0  0  0  0  0  0  0  0  0
    4.1441  -17.6526   33.1650 H   0  0  0  0  0  0  0  0  0  0  0  0
    4.8261  -15.2705   33.5140 H   0  0  0  0  0  0  0  0  0  0  0  0
    2.4838  -13.6715   30.3299 H   0  0  0  0  0  0  0  0  0  0  0  0
    2.9177  -12.0617   30.2602 H   0  0  0  0  0  0  0  0  0  0  0  0
  1  2  2  0
  2  3  1  0
  3  4  1  0
  4  5  1  0
  5  6  1  0
  6  7  1  0
  7  8  1  0
  2  9  1  0
  9 10  2  0
 10 11  1  0
 11 12  2  0
 12 13  1  0
 13 14  1  0
 13 15  2  0
 15 16  1  0
 16 17  2  0
 17 18  1  0
 18 19  1  0
  8  4  1  0
 19  9  1  0
 17 11  1  0
  3 20  1  0
  4 21  1  0
  5 22  1  0
  5 23  1  0
  6 24  1  0
  6 25  1  0
  7 26  1  0
  8 27  1  0
  8 28  1  0
 10 29  1  0
 12 30  1  0
 15 31  1  0
 16 32  1  0
 19 33  1  0
 19 34  1  0
M  END
>  <Energy>  (1206) 
320.32351252473097

>  <compound_id>  (1206) 
57875

>  <target_id>  (1206) 
1

>  <reference_id>  (1206) 
44

>  <inspiration_ids>  (1206) 
[89, 44]

>  <energy_score>  (1206) 
288.22343574573586

>  <distance_score>  (1206) 
8.449670478912477

>  <path>  (1206) 
/opt/xchem-fragalysis-2/maxwin/BulkDock/SCRATCH/511022/C57875-P44/C57875-P44.minimised.mol

>  <scratch_subdir>  (1206) 
/opt/xchem-fragalysis-2/maxwin/BulkDock/SCRATCH/511022/C57875-P44

>  <fragmenstein_runtime>  (1206) 
10.804861783981323

>  <fragmenstein_outcome>  (1206) 
too moved

>  <fragmenstein_mode>  (1206) 
expansion

>  <fragmenstein_error>  (1206) 


$$$$
C57876-P44
     RDKit          3D

 38 41  0  0  0  0  0  0  0  0999 V2000
   -1.2933  -11.5857   30.2519 O   0  0  0  0  0  0  0  0  0  0  0  0
   -0.2820  -11.1742   30.6783 C   0  0  0  0  0  0  0  0  0  0  0  0
   -0.1844   -9.3377   31.0013 N   0  0  0  0  0  0  0  0  0  0  0  0
   -1.1115   -8.2510   30.7353 C   0  0  0  0  0  0  0  0  0  0  0  0
   -2.2125   -7.9017   31.7494 C   0  0  0  0  0  0  0  0  0  0  0  0
   -2.6688   -6.4726   31.4042 C   0  0  0  0  0  0  0  0  0  0  0  0
   -1.4789   -5.7604   30.9386 N   0  0  0  0  0  0  0  0  0  0  0  0
   -0.4199   -6.7950   30.8825 C   0  0  0  0  0  0  0  0  0  0  0  0
    0.9137   -6.4222   30.3012 C   0  0  0  0  0  0  0  0  0  0  0  0
    0.7752   -6.5593   31.7900 C   0  0  0  0  0  0  0  0  0  0  0  0
    1.4890  -12.4097   30.9827 C   0  0  0  0  0  0  0  0  0  0  0  0
    2.2815  -13.6537   30.7059 C   0  0  0  0  0  0  0  0  0  0  0  0
    2.4539  -15.2858   29.8514 C   0  0  0  0  0  0  0  0  0  0  0  0
    2.3728  -15.5652   28.4198 C   0  0  0  0  0  0  0  0  0  0  0  0
    3.0636  -16.9393   27.7478 C   0  0  0  0  0  0  0  0  0  0  0  0
    2.5591  -17.0481   26.4322 F   0  0  0  0  0  0  0  0  0  0  0  0
    4.3200  -18.4581   28.3811 C   0  0  0  0  0  0  0  0  0  0  0  0
    4.1613  -17.9658   30.2789 C   0  0  0  0  0  0  0  0  0  0  0  0
    3.1964  -16.3877   30.7473 C   0  0  0  0  0  0  0  0  0  0  0  0
    3.4058  -15.1543   31.9964 O   0  0  0  0  0  0  0  0  0  0  0  0
    3.1260  -13.2300   31.8514 C   0  0  0  0  0  0  0  0  0  0  0  0
    0.7280   -9.1185   31.2701 H   0  0  0  0  0  0  0  0  0  0  0  0
   -1.2877   -8.2327   29.6615 H   0  0  0  0  0  0  0  0  0  0  0  0
   -1.8045   -7.9255   32.7693 H   0  0  0  0  0  0  0  0  0  0  0  0
   -3.0694   -8.5542   31.7380 H   0  0  0  0  0  0  0  0  0  0  0  0
   -3.4090   -6.4948   30.5972 H   0  0  0  0  0  0  0  0  0  0  0  0
   -3.1222   -5.9835   32.2721 H   0  0  0  0  0  0  0  0  0  0  0  0
   -1.2491   -5.0250   31.6069 H   0  0  0  0  0  0  0  0  0  0  0  0
    1.4405   -7.1799   29.7478 H   0  0  0  0  0  0  0  0  0  0  0  0
    1.0295   -5.4218   29.8969 H   0  0  0  0  0  0  0  0  0  0  0  0
    1.2168   -7.3931   32.3091 H   0  0  0  0  0  0  0  0  0  0  0  0
    0.8134   -5.6477   32.3790 H   0  0  0  0  0  0  0  0  0  0  0  0
    1.9123  -14.2526   31.9225 H   0  0  0  0  0  0  0  0  0  0  0  0
    2.0087  -14.9128   27.6331 H   0  0  0  0  0  0  0  0  0  0  0  0
    4.5602  -19.3509   27.8602 H   0  0  0  0  0  0  0  0  0  0  0  0
    4.5491  -18.6065   31.0719 H   0  0  0  0  0  0  0  0  0  0  0  0
    4.1266  -12.8266   31.6851 H   0  0  0  0  0  0  0  0  0  0  0  0
    3.2003  -13.3806   32.9226 H   0  0  0  0  0  0  0  0  0  0  0  0
  1  2  2  0
  2  3  1  0
  3  4  1  0
  4  5  1  0
  5  6  1  0
  6  7  1  0
  7  8  1  0
  8  9  1  0
  9 10  1  0
  2 11  1  0
 11 12  2  0
 12 13  1  0
 13 14  2  0
 14 15  1  0
 15 16  1  0
 15 17  2  0
 17 18  1  0
 18 19  2  0
 19 20  1  0
 20 21  1  0
  8  4  1  0
 21 11  1  0
 10  8  1  0
 19 13  1  0
  3 22  1  0
  4 23  1  0
  5 24  1  0
  5 25  1  0
  6 26  1  0
  6 27  1  0
  7 28  1  0
  9 29  1  0
  9 30  1  0
 10 31  1  0
 10 32  1  0
 12 33  1  0
 14 34  1  0
 17 35  1  0
 18 36  1  0
 21 37  1  0
 21 38  1  0
M  END
>  <Energy>  (1207) 
1203.6928140487703

>  <compound_id>  (1207) 
57876

>  <target_id>  (1207) 
1

>  <reference_id>  (1207) 
44

>  <inspiration_ids>  (1207) 
[89, 44]

>  <energy_score>  (1207) 
1175.5919357402747

>  <distance_score>  (1207) 
7.963067291320039

>  <path>  (1207) 
/opt/xchem-fragalysis-2/maxwin/BulkDock/SCRATCH/511022/C57876-P44/C57876-P44.minimised.mol

>  <scratch_subdir>  (1207) 
/opt/xchem-fragalysis-2/maxwin/BulkDock/SCRATCH/511022/C57876-P44

>  <fragmenstein_runtime>  (1207) 
11.930419445037842

>  <fragmenstein_outcome>  (1207) 
too moved

>  <fragmenstein_mode>  (1207) 
expansion

>  <fragmenstein_error>  (1207) 


$$$$
C57877-P44
     RDKit          3D

 41 44  0  0  0  0  0  0  0  0999 V2000
    2.1951   -9.0810   28.4480 O   0  0  0  0  0  0  0  0  0  0  0  0
    1.7510   -9.4533   29.5053 C   0  0  0  0  0  0  0  0  0  0  0  0
    0.7344   -8.5976   30.4684 N   0  0  0  0  0  0  0  0  0  0  0  0
    0.2155   -7.2113   30.3595 C   0  0  0  0  0  0  0  0  0  0  0  0
    1.3066   -6.1442   30.0915 C   0  0  0  0  0  0  0  0  0  0  0  0
    0.7399   -4.7161   30.0000 C   0  0  0  0  0  0  0  0  0  0  0  0
    0.0149   -4.3534   31.2150 N   0  0  0  0  0  0  0  0  0  0  0  0
   -1.0285   -5.3453   31.5227 C   0  0  0  0  0  0  0  0  0  0  0  0
   -2.4128   -5.1027   30.9729 C   0  0  0  0  0  0  0  0  0  0  0  0
   -2.1453   -4.9069   32.4371 C   0  0  0  0  0  0  0  0  0  0  0  0
   -0.5380   -6.7810   31.6411 C   0  0  0  0  0  0  0  0  0  0  0  0
    2.5648  -11.3356   30.0390 C   0  0  0  0  0  0  0  0  0  0  0  0
    2.7351  -12.7021   29.9091 C   0  0  0  0  0  0  0  0  0  0  0  0
    2.7603  -14.3466   30.8357 C   0  0  0  0  0  0  0  0  0  0  0  0
    2.7349  -15.7557   30.5907 C   0  0  0  0  0  0  0  0  0  0  0  0
    2.9361  -16.7019   31.6427 C   0  0  0  0  0  0  0  0  0  0  0  0
    3.6066  -17.8647   31.5298 F   0  0  0  0  0  0  0  0  0  0  0  0
    2.5049  -16.4191   32.8752 C   0  0  0  0  0  0  0  0  0  0  0  0
    2.2130  -15.1053   33.0667 C   0  0  0  0  0  0  0  0  0  0  0  0
    2.6041  -14.1372   32.1353 C   0  0  0  0  0  0  0  0  0  0  0  0
    2.0840  -12.9050   31.9783 O   0  0  0  0  0  0  0  0  0  0  0  0
    3.1016  -12.0643   31.5713 C   0  0  0  0  0  0  0  0  0  0  0  0
    0.4580   -9.1722   31.2359 H   0  0  0  0  0  0  0  0  0  0  0  0
   -0.5531   -7.2439   29.5917 H   0  0  0  0  0  0  0  0  0  0  0  0
    1.8755   -6.3750   29.1854 H   0  0  0  0  0  0  0  0  0  0  0  0
    2.0382   -6.1724   30.9105 H   0  0  0  0  0  0  0  0  0  0  0  0
    0.0747   -4.6051   29.1402 H   0  0  0  0  0  0  0  0  0  0  0  0
    1.5626   -4.0080   29.8521 H   0  0  0  0  0  0  0  0  0  0  0  0
    0.6649   -4.2560   31.9947 H   0  0  0  0  0  0  0  0  0  0  0  0
   -2.5718   -4.2184   30.3632 H   0  0  0  0  0  0  0  0  0  0  0  0
   -3.0198   -5.9500   30.6795 H   0  0  0  0  0  0  0  0  0  0  0  0
   -2.5671   -5.6255   33.1302 H   0  0  0  0  0  0  0  0  0  0  0  0
   -2.1379   -3.8894   32.8125 H   0  0  0  0  0  0  0  0  0  0  0  0
    0.1252   -6.8663   32.5121 H   0  0  0  0  0  0  0  0  0  0  0  0
   -1.3730   -7.4703   31.8227 H   0  0  0  0  0  0  0  0  0  0  0  0
    1.6707  -12.5508   30.2732 H   0  0  0  0  0  0  0  0  0  0  0  0
    2.7111  -16.0219   29.5591 H   0  0  0  0  0  0  0  0  0  0  0  0
    2.3152  -17.2150   33.5784 H   0  0  0  0  0  0  0  0  0  0  0  0
    1.4734  -14.8576   33.8183 H   0  0  0  0  0  0  0  0  0  0  0  0
    4.0629  -12.6584   31.6530 H   0  0  0  0  0  0  0  0  0  0  0  0
    3.5078  -11.3089   32.2380 H   0  0  0  0  0  0  0  0  0  0  0  0
  1  2  2  0
  2  3  1  0
  3  4  1  0
  4  5  1  0
  5  6  1  0
  6  7  1  0
  7  8  1  0
  8  9  1  0
  9 10  1  0
  8 11  1  0
  2 12  1  0
 12 13  2  0
 13 14  1  0
 14 15  2  0
 15 16  1  0
 16 17  1  0
 16 18  2  0
 18 19  1  0
 19 20  2  0
 20 21  1  0
 21 22  1  0
 11  4  1  0
 22 12  1  0
 10  8  1  0
 20 14  1  0
  3 23  1  0
  4 24  1  0
  5 25  1  0
  5 26  1  0
  6 27  1  0
  6 28  1  0
  7 29  1  0
  9 30  1  0
  9 31  1  0
 10 32  1  0
 10 33  1  0
 11 34  1  0
 11 35  1  0
 13 36  1  0
 15 37  1  0
 18 38  1  0
 19 39  1  0
 22 40  1  0
 22 41  1  0
M  END
>  <Energy>  (1208) 
498.99707359061199

>  <compound_id>  (1208) 
57877

>  <target_id>  (1208) 
1

>  <reference_id>  (1208) 
44

>  <inspiration_ids>  (1208) 
[89, 44]

>  <energy_score>  (1208) 
468.940270431915

>  <distance_score>  (1208) 
8.38172160633005

>  <path>  (1208) 
/opt/xchem-fragalysis-2/maxwin/BulkDock/SCRATCH/511022/C57877-P44/C57877-P44.minimised.mol

>  <scratch_subdir>  (1208) 
/opt/xchem-fragalysis-2/maxwin/BulkDock/SCRATCH/511022/C57877-P44

>  <fragmenstein_runtime>  (1208) 
18.54912257194519

>  <fragmenstein_outcome>  (1208) 
too moved

>  <fragmenstein_mode>  (1208) 
expansion

>  <fragmenstein_error>  (1208) 


$$$$
C57878-P44
     RDKit          3D

 41 44  0  0  0  0  0  0  0  0999 V2000
    3.4264  -11.5730   32.3449 O   0  0  0  0  0  0  0  0  0  0  0  0
    3.0731  -12.2185   31.3976 C   0  0  0  0  0  0  0  0  0  0  0  0
    2.3686  -11.4096   29.9163 N   0  0  0  0  0  0  0  0  0  0  0  0
    1.8729   -9.4644   29.5402 C   0  0  0  0  0  0  0  0  0  0  0  0
    0.8971   -8.0652   30.2502 C   0  0  0  0  0  0  0  0  0  0  0  0
    1.5275   -6.6198   29.9935 C   0  0  0  0  0  0  0  0  0  0  0  0
    0.5505   -5.6747   30.6413 C   0  0  0  0  0  0  0  0  0  0  0  0
    1.0246   -4.2820   31.0340 C   0  0  0  0  0  0  0  0  0  0  0  0
    0.0184   -4.4281   29.9408 C   0  0  0  0  0  0  0  0  0  0  0  0
   -0.2692   -6.4921   31.6073 C   0  0  0  0  0  0  0  0  0  0  0  0
    0.4033   -7.8183   31.6162 N   0  0  0  0  0  0  0  0  0  0  0  0
    3.2103  -13.9453   31.7997 C   0  0  0  0  0  0  0  0  0  0  0  0
    2.8584  -15.2613   31.6768 C   0  0  0  0  0  0  0  0  0  0  0  0
    3.2457  -16.3696   32.5995 C   0  0  0  0  0  0  0  0  0  0  0  0
    2.6616  -17.6332   32.5471 C   0  0  0  0  0  0  0  0  0  0  0  0
    3.3254  -18.7410   33.0841 C   0  0  0  0  0  0  0  0  0  0  0  0
    2.8368  -19.9732   32.9147 F   0  0  0  0  0  0  0  0  0  0  0  0
    4.5157  -18.6084   33.7711 C   0  0  0  0  0  0  0  0  0  0  0  0
    5.0107  -17.3338   33.9798 C   0  0  0  0  0  0  0  0  0  0  0  0
    4.3485  -16.2271   33.4289 C   0  0  0  0  0  0  0  0  0  0  0  0
    4.8469  -15.0048   33.7579 O   0  0  0  0  0  0  0  0  0  0  0  0
    4.2442  -13.8405   33.1195 C   0  0  0  0  0  0  0  0  0  0  0  0
    2.2261  -12.0726   29.2420 H   0  0  0  0  0  0  0  0  0  0  0  0
    2.1959   -9.0289   28.5722 H   0  0  0  0  0  0  0  0  0  0  0  0
    0.8423   -9.7377   29.1266 H   0  0  0  0  0  0  0  0  0  0  0  0
   -0.0315   -8.1298   29.6633 H   0  0  0  0  0  0  0  0  0  0  0  0
    2.4626   -6.4633   30.5382 H   0  0  0  0  0  0  0  0  0  0  0  0
    1.7581   -6.4007   28.9530 H   0  0  0  0  0  0  0  0  0  0  0  0
    0.6928   -3.8685   31.9802 H   0  0  0  0  0  0  0  0  0  0  0  0
    2.0282   -3.9757   30.7584 H   0  0  0  0  0  0  0  0  0  0  0  0
   -0.9792   -4.0667   30.1540 H   0  0  0  0  0  0  0  0  0  0  0  0
    0.3486   -4.1973   28.9341 H   0  0  0  0  0  0  0  0  0  0  0  0
   -0.2841   -6.0734   32.6173 H   0  0  0  0  0  0  0  0  0  0  0  0
   -1.2936   -6.6063   31.2440 H   0  0  0  0  0  0  0  0  0  0  0  0
   -0.2537   -8.5430   31.9075 H   0  0  0  0  0  0  0  0  0  0  0  0
    2.3978  -15.6602   30.7788 H   0  0  0  0  0  0  0  0  0  0  0  0
    1.7042  -17.7643   32.0567 H   0  0  0  0  0  0  0  0  0  0  0  0
    5.0082  -19.4817   34.1844 H   0  0  0  0  0  0  0  0  0  0  0  0
    5.8978  -17.1917   34.5829 H   0  0  0  0  0  0  0  0  0  0  0  0
    5.0910  -13.2035   32.8283 H   0  0  0  0  0  0  0  0  0  0  0  0
    3.7911  -13.3786   33.9738 H   0  0  0  0  0  0  0  0  0  0  0  0
  1  2  2  0
  2  3  1  0
  3  4  1  0
  4  5  1  0
  5  6  1  0
  6  7  1  0
  7  8  1  0
  8  9  1  0
  7 10  1  0
 10 11  1  0
  2 12  1  0
 12 13  2  0
 13 14  1  0
 14 15  2  0
 15 16  1  0
 16 17  1  0
 16 18  2  0
 18 19  1  0
 19 20  2  0
 20 21  1  0
 21 22  1  0
 11  5  1  0
 22 12  1  0
  9  7  1  0
 20 14  1  0
  3 23  1  0
  4 24  1  0
  4 25  1  0
  5 26  1  0
  6 27  1  0
  6 28  1  0
  8 29  1  0
  8 30  1  0
  9 31  1  0
  9 32  1  0
 10 33  1  0
 10 34  1  0
 11 35  1  0
 13 36  1  0
 15 37  1  0
 18 38  1  0
 19 39  1  0
 22 40  1  0
 22 41  1  0
M  END
>  <Energy>  (1209) 
350.28491691860467

>  <compound_id>  (1209) 
57878

>  <target_id>  (1209) 
1

>  <reference_id>  (1209) 
44

>  <inspiration_ids>  (1209) 
[89, 44]

>  <energy_score>  (1209) 
288.84082187414674

>  <distance_score>  (1209) 
7.7518246266526685

>  <path>  (1209) 
/opt/xchem-fragalysis-2/maxwin/BulkDock/SCRATCH/511022/C57878-P44/C57878-P44.minimised.mol

>  <scratch_subdir>  (1209) 
/opt/xchem-fragalysis-2/maxwin/BulkDock/SCRATCH/511022/C57878-P44

>  <fragmenstein_runtime>  (1209) 
17.27252721786499

>  <fragmenstein_outcome>  (1209) 
too moved

>  <fragmenstein_mode>  (1209) 
expansion

>  <fragmenstein_error>  (1209) 


$$$$
C57879-P44
     RDKit          3D

 37 39  0  0  0  0  0  0  0  0999 V2000
   -0.4563   -8.6454   30.4710 C   0  0  0  0  0  0  0  0  0  0  0  0
    1.0029   -8.4990   30.6189 N   0  0  0  0  0  0  0  0  0  0  0  0
    1.7924   -9.4711   29.5174 C   0  0  0  0  0  0  0  0  0  0  0  0
    2.1126   -9.0938   28.4085 O   0  0  0  0  0  0  0  0  0  0  0  0
    2.4788  -11.4218   29.9862 C   0  0  0  0  0  0  0  0  0  0  0  0
    2.9627  -12.7012   29.7233 C   0  0  0  0  0  0  0  0  0  0  0  0
    2.7493  -14.2386   30.8003 C   0  0  0  0  0  0  0  0  0  0  0  0
    2.5090  -15.6225   30.5146 C   0  0  0  0  0  0  0  0  0  0  0  0
    2.3193  -16.5180   31.6024 C   0  0  0  0  0  0  0  0  0  0  0  0
    1.3766  -17.4792   31.5797 F   0  0  0  0  0  0  0  0  0  0  0  0
    2.9182  -16.3174   32.8119 C   0  0  0  0  0  0  0  0  0  0  0  0
    3.4712  -15.0820   33.0421 C   0  0  0  0  0  0  0  0  0  0  0  0
    3.3010  -14.1114   32.0595 C   0  0  0  0  0  0  0  0  0  0  0  0
    3.8914  -12.9148   32.0773 O   0  0  0  0  0  0  0  0  0  0  0  0
    2.8206  -12.0563   31.4870 C   0  0  0  0  0  0  0  0  0  0  0  0
    0.6130   -6.9401   30.5752 C   0  0  0  0  0  0  0  0  0  0  0  0
    1.6869   -6.0217   29.9440 C   0  0  0  0  0  0  0  0  0  0  0  0
    1.0372   -4.6475   29.7576 C   0  0  0  0  0  0  0  0  0  0  0  0
   -0.2581   -4.6973   30.4281 N   0  0  0  0  0  0  0  0  0  0  0  0
   -0.7056   -6.0943   30.4007 C   0  0  0  0  0  0  0  0  0  0  0  0
   -1.0198   -8.3117   31.3516 H   0  0  0  0  0  0  0  0  0  0  0  0
   -0.7991   -8.3287   29.4827 H   0  0  0  0  0  0  0  0  0  0  0  0
   -0.7110   -9.7111   30.4349 H   0  0  0  0  0  0  0  0  0  0  0  0
    3.2395  -13.0661   28.7397 H   0  0  0  0  0  0  0  0  0  0  0  0
    2.1418  -15.7956   29.5247 H   0  0  0  0  0  0  0  0  0  0  0  0
    2.8751  -17.1222   33.5292 H   0  0  0  0  0  0  0  0  0  0  0  0
    4.0448  -14.8415   33.9260 H   0  0  0  0  0  0  0  0  0  0  0  0
    3.2386  -11.3624   32.1818 H   0  0  0  0  0  0  0  0  0  0  0  0
    1.7906  -12.4600   31.6090 H   0  0  0  0  0  0  0  0  0  0  0  0
    0.7901   -6.7718   31.6572 H   0  0  0  0  0  0  0  0  0  0  0  0
    2.0662   -6.4116   28.9962 H   0  0  0  0  0  0  0  0  0  0  0  0
    2.5445   -5.9343   30.6198 H   0  0  0  0  0  0  0  0  0  0  0  0
    0.9155   -4.4170   28.6953 H   0  0  0  0  0  0  0  0  0  0  0  0
    1.6590   -3.8563   30.1883 H   0  0  0  0  0  0  0  0  0  0  0  0
   -0.9274   -4.0927   29.9442 H   0  0  0  0  0  0  0  0  0  0  0  0
   -1.2579   -6.2957   29.4852 H   0  0  0  0  0  0  0  0  0  0  0  0
   -1.4000   -6.2446   31.2348 H   0  0  0  0  0  0  0  0  0  0  0  0
  1  2  1  0
  2  3  1  0
  3  4  2  0
  3  5  1  0
  5  6  2  0
  6  7  1  0
  7  8  2  0
  8  9  1  0
  9 10  1  0
  9 11  2  0
 11 12  1  0
 12 13  2  0
 13 14  1  0
 14 15  1  0
  2 16  1  0
 16 17  1  0
 17 18  1  0
 18 19  1  0
 19 20  1  0
 15  5  1  0
 20 16  1  0
 13  7  1  0
  1 21  1  0
  1 22  1  0
  1 23  1  0
  6 24  1  0
  8 25  1  0
 11 26  1  0
 12 27  1  0
 15 28  1  0
 15 29  1  0
 16 30  1  0
 17 31  1  0
 17 32  1  0
 18 33  1  0
 18 34  1  0
 19 35  1  0
 20 36  1  0
 20 37  1  0
M  END
>  <Energy>  (1210) 
472.87639992463261

>  <compound_id>  (1210) 
57879

>  <target_id>  (1210) 
1

>  <reference_id>  (1210) 
44

>  <inspiration_ids>  (1210) 
[89, 44]

>  <energy_score>  (1210) 
409.07322507324284

>  <distance_score>  (1210) 
7.969924080796424

>  <path>  (1210) 
/opt/xchem-fragalysis-2/maxwin/BulkDock/SCRATCH/511022/C57879-P44/C57879-P44.minimised.mol

>  <scratch_subdir>  (1210) 
/opt/xchem-fragalysis-2/maxwin/BulkDock/SCRATCH/511022/C57879-P44

>  <fragmenstein_runtime>  (1210) 
12.194793701171875

>  <fragmenstein_outcome>  (1210) 
too moved

>  <fragmenstein_mode>  (1210) 
expansion

>  <fragmenstein_error>  (1210) 


$$$$
C57880-P44
     RDKit          3D

 43 45  0  0  0  0  0  0  0  0999 V2000
   -0.3554   -8.5861   30.4357 C   0  0  0  0  0  0  0  0  0  0  0  0
    1.1045   -8.5444   30.6207 N   0  0  0  0  0  0  0  0  0  0  0  0
    1.8794   -9.6519   29.5288 C   0  0  0  0  0  0  0  0  0  0  0  0
    2.2128   -9.2219   28.4488 O   0  0  0  0  0  0  0  0  0  0  0  0
    2.4851  -11.7367   29.7829 C   0  0  0  0  0  0  0  0  0  0  0  0
    3.0707  -13.2066   28.9939 C   0  0  0  0  0  0  0  0  0  0  0  0
    2.5644  -15.1894   29.0482 C   0  0  0  0  0  0  0  0  0  0  0  0
    3.1551  -16.6672   27.9766 C   0  0  0  0  0  0  0  0  0  0  0  0
    4.3006  -18.4054   28.2728 C   0  0  0  0  0  0  0  0  0  0  0  0
    4.3749  -19.4177   27.4102 F   0  0  0  0  0  0  0  0  0  0  0  0
    4.3277  -18.4338   30.1324 C   0  0  0  0  0  0  0  0  0  0  0  0
    3.5089  -17.0532   31.0195 C   0  0  0  0  0  0  0  0  0  0  0  0
    2.6682  -15.5925   30.5035 C   0  0  0  0  0  0  0  0  0  0  0  0
    2.5566  -14.4674   31.4352 O   0  0  0  0  0  0  0  0  0  0  0  0
    2.6754  -12.7987   31.1961 C   0  0  0  0  0  0  0  0  0  0  0  0
    0.8132   -6.8783   30.5329 C   0  0  0  0  0  0  0  0  0  0  0  0
   -0.4972   -6.0254   30.6449 C   0  0  0  0  0  0  0  0  0  0  0  0
   -0.3928   -4.6922   31.4132 C   0  0  0  0  0  0  0  0  0  0  0  0
    0.1715   -3.5133   30.6351 C   0  0  0  0  0  0  0  0  0  0  0  0
    1.5786   -3.7031   30.3032 N   0  0  0  0  0  0  0  0  0  0  0  0
    1.7444   -4.6769   29.2323 C   0  0  0  0  0  0  0  0  0  0  0  0
    1.9300   -6.1298   29.7081 C   0  0  0  0  0  0  0  0  0  0  0  0
   -0.7273   -8.1117   29.5250 H   0  0  0  0  0  0  0  0  0  0  0  0
   -0.8706   -8.3918   31.3821 H   0  0  0  0  0  0  0  0  0  0  0  0
   -0.6457   -9.6241   30.2331 H   0  0  0  0  0  0  0  0  0  0  0  0
    3.0870  -13.2632   27.9158 H   0  0  0  0  0  0  0  0  0  0  0  0
    2.7396  -16.4730   26.9383 H   0  0  0  0  0  0  0  0  0  0  0  0
    4.9065  -19.0680   30.7605 H   0  0  0  0  0  0  0  0  0  0  0  0
    3.6127  -17.1301   32.1127 H   0  0  0  0  0  0  0  0  0  0  0  0
    1.8668  -12.5003   31.7835 H   0  0  0  0  0  0  0  0  0  0  0  0
    3.5959  -12.6235   31.7439 H   0  0  0  0  0  0  0  0  0  0  0  0
    1.1856   -6.7197   31.5620 H   0  0  0  0  0  0  0  0  0  0  0  0
   -1.2945   -6.5573   31.1689 H   0  0  0  0  0  0  0  0  0  0  0  0
   -0.8353   -5.8186   29.6328 H   0  0  0  0  0  0  0  0  0  0  0  0
   -1.4071   -4.4090   31.7253 H   0  0  0  0  0  0  0  0  0  0  0  0
    0.1716   -4.8403   32.3425 H   0  0  0  0  0  0  0  0  0  0  0  0
    0.0961   -2.6237   31.2720 H   0  0  0  0  0  0  0  0  0  0  0  0
   -0.4317   -3.3020   29.7435 H   0  0  0  0  0  0  0  0  0  0  0  0
    1.9321   -2.8029   29.9686 H   0  0  0  0  0  0  0  0  0  0  0  0
    2.6686   -4.4108   28.7018 H   0  0  0  0  0  0  0  0  0  0  0  0
    0.9568   -4.5710   28.4860 H   0  0  0  0  0  0  0  0  0  0  0  0
    2.8360   -6.1196   30.3225 H   0  0  0  0  0  0  0  0  0  0  0  0
    2.1955   -6.7289   28.8324 H   0  0  0  0  0  0  0  0  0  0  0  0
  1  2  1  0
  2  3  1  0
  3  4  2  0
  3  5  1  0
  5  6  2  0
  6  7  1  0
  7  8  2  0
  8  9  1  0
  9 10  1  0
  9 11  2  0
 11 12  1  0
 12 13  2  0
 13 14  1  0
 14 15  1  0
  2 16  1  0
 16 17  1  0
 17 18  1  0
 18 19  1  0
 19 20  1  0
 20 21  1  0
 21 22  1  0
 15  5  1  0
 22 16  1  0
 13  7  1  0
  1 23  1  0
  1 24  1  0
  1 25  1  0
  6 26  1  0
  8 27  1  0
 11 28  1  0
 12 29  1  0
 15 30  1  0
 15 31  1  0
 16 32  1  0
 17 33  1  0
 17 34  1  0
 18 35  1  0
 18 36  1  0
 19 37  1  0
 19 38  1  0
 20 39  1  0
 21 40  1  0
 21 41  1  0
 22 42  1  0
 22 43  1  0
M  END
>  <Energy>  (1211) 
1047.8051813522409

>  <compound_id>  (1211) 
57880

>  <target_id>  (1211) 
1

>  <reference_id>  (1211) 
44

>  <inspiration_ids>  (1211) 
[89, 44]

>  <energy_score>  (1211) 
987.9344684428555

>  <distance_score>  (1211) 
7.131685023509319

>  <path>  (1211) 
/opt/xchem-fragalysis-2/maxwin/BulkDock/SCRATCH/511022/C57880-P44/C57880-P44.minimised.mol

>  <scratch_subdir>  (1211) 
/opt/xchem-fragalysis-2/maxwin/BulkDock/SCRATCH/511022/C57880-P44

>  <fragmenstein_runtime>  (1211) 
13.310865879058838

>  <fragmenstein_outcome>  (1211) 
too moved

>  <fragmenstein_mode>  (1211) 
expansion

>  <fragmenstein_error>  (1211) 


$$$$
C42173-P44
     RDKit          3D

 37 39  0  0  0  0  0  0  0  0999 V2000
    3.1802  -12.4267   28.9904 O   0  0  0  0  0  0  0  0  0  0  0  0
    2.7425  -11.6771   29.8415 C   0  0  0  0  0  0  0  0  0  0  0  0
    2.1162   -9.8774   29.5532 N   0  0  0  0  0  0  0  0  0  0  0  0
    2.1142   -8.8934   28.1968 C   0  0  0  0  0  0  0  0  0  0  0  0
    2.5060   -7.2486   28.3554 C   0  0  0  0  0  0  0  0  0  0  0  0
    3.9367   -6.7073   28.3066 C   0  0  0  0  0  0  0  0  0  0  0  0
    3.7527   -5.2116   28.5889 C   0  0  0  0  0  0  0  0  0  0  0  0
    2.4425   -5.1069   29.3568 C   0  0  0  0  0  0  0  0  0  0  0  0
    1.9440   -6.4858   29.4776 N   0  0  0  0  0  0  0  0  0  0  0  0
    2.9155  -12.4559   31.4452 C   0  0  0  0  0  0  0  0  0  0  0  0
    2.7199  -13.8130   31.4573 C   0  0  0  0  0  0  0  0  0  0  0  0
    3.0785  -14.9125   32.4479 C   0  0  0  0  0  0  0  0  0  0  0  0
    2.7370  -16.2685   32.2191 C   0  0  0  0  0  0  0  0  0  0  0  0
    3.4748  -17.3105   32.7883 C   0  0  0  0  0  0  0  0  0  0  0  0
    3.2024  -18.5856   32.4605 F   0  0  0  0  0  0  0  0  0  0  0  0
    4.5502  -17.0269   33.6261 C   0  0  0  0  0  0  0  0  0  0  0  0
    4.8158  -15.6842   33.9717 C   0  0  0  0  0  0  0  0  0  0  0  0
    4.0591  -14.6361   33.3922 C   0  0  0  0  0  0  0  0  0  0  0  0
    4.4493  -13.3520   33.6174 O   0  0  0  0  0  0  0  0  0  0  0  0
    4.3502  -12.4682   32.4482 C   0  0  0  0  0  0  0  0  0  0  0  0
    1.7352   -9.5111   30.3886 H   0  0  0  0  0  0  0  0  0  0  0  0
    2.7005   -9.1958   27.3198 H   0  0  0  0  0  0  0  0  0  0  0  0
    1.0269   -8.8532   28.1645 H   0  0  0  0  0  0  0  0  0  0  0  0
    2.1541   -6.8444   27.4095 H   0  0  0  0  0  0  0  0  0  0  0  0
    4.4074   -6.8712   27.3312 H   0  0  0  0  0  0  0  0  0  0  0  0
    4.5930   -7.1376   29.0635 H   0  0  0  0  0  0  0  0  0  0  0  0
    4.5989   -4.8128   29.1573 H   0  0  0  0  0  0  0  0  0  0  0  0
    3.6834   -4.6567   27.6461 H   0  0  0  0  0  0  0  0  0  0  0  0
    2.5889   -4.6699   30.3490 H   0  0  0  0  0  0  0  0  0  0  0  0
    1.7284   -4.4825   28.8089 H   0  0  0  0  0  0  0  0  0  0  0  0
    0.9287   -6.4774   29.5492 H   0  0  0  0  0  0  0  0  0  0  0  0
    2.5250  -14.2605   30.4881 H   0  0  0  0  0  0  0  0  0  0  0  0
    1.9708  -16.5241   31.4978 H   0  0  0  0  0  0  0  0  0  0  0  0
    5.1492  -17.8396   34.0246 H   0  0  0  0  0  0  0  0  0  0  0  0
    5.6401  -15.4445   34.6366 H   0  0  0  0  0  0  0  0  0  0  0  0
    5.2405  -12.7259   31.8590 H   0  0  0  0  0  0  0  0  0  0  0  0
    4.5127  -11.4706   32.8766 H   0  0  0  0  0  0  0  0  0  0  0  0
  1  2  2  0
  2  3  1  0
  3  4  1  0
  4  5  1  0
  5  6  1  0
  6  7  1  0
  7  8  1  0
  8  9  1  0
  2 10  1  0
 10 11  2  0
 11 12  1  0
 12 13  2  0
 13 14  1  0
 14 15  1  0
 14 16  2  0
 16 17  1  0
 17 18  2  0
 18 19  1  0
 19 20  1  0
  9  5  1  0
 20 10  1  0
 18 12  1  0
  3 21  1  0
  4 22  1  0
  4 23  1  0
  5 24  1  0
  6 25  1  0
  6 26  1  0
  7 27  1  0
  7 28  1  0
  8 29  1  0
  8 30  1  0
  9 31  1  0
 11 32  1  0
 13 33  1  0
 16 34  1  0
 17 35  1  0
 20 36  1  0
 20 37  1  0
M  END
>  <Energy>  (1212) 
240.77101894206297

>  <compound_id>  (1212) 
42173

>  <target_id>  (1212) 
1

>  <reference_id>  (1212) 
44

>  <inspiration_ids>  (1212) 
[89, 44]

>  <energy_score>  (1212) 
205.7467538067641

>  <distance_score>  (1212) 
8.468006074943775

>  <path>  (1212) 
/opt/xchem-fragalysis-2/maxwin/BulkDock/SCRATCH/511022/C42173-P44/C42173-P44.minimised.mol

>  <scratch_subdir>  (1212) 
/opt/xchem-fragalysis-2/maxwin/BulkDock/SCRATCH/511022/C42173-P44

>  <fragmenstein_runtime>  (1212) 
12.576363801956177

>  <fragmenstein_outcome>  (1212) 
too moved

>  <fragmenstein_mode>  (1212) 
expansion

>  <fragmenstein_error>  (1212) 


$$$$
C57881-P44
     RDKit          3D

 40 42  0  0  0  0  0  0  0  0999 V2000
    1.5000   -8.9068   28.6044 C   0  0  0  0  0  0  0  0  0  0  0  0
    2.2520   -9.5150   29.6630 N   0  0  0  0  0  0  0  0  0  0  0  0
    2.4631  -11.3386   30.2009 C   0  0  0  0  0  0  0  0  0  0  0  0
    1.7914  -11.9801   29.5970 O   0  0  0  0  0  0  0  0  0  0  0  0
    3.3014  -12.4003   31.5364 C   0  0  0  0  0  0  0  0  0  0  0  0
    2.8873  -13.7021   31.5630 C   0  0  0  0  0  0  0  0  0  0  0  0
    3.2382  -14.8030   32.5269 C   0  0  0  0  0  0  0  0  0  0  0  0
    2.8662  -16.1528   32.2961 C   0  0  0  0  0  0  0  0  0  0  0  0
    3.5929  -17.2026   32.8630 C   0  0  0  0  0  0  0  0  0  0  0  0
    3.3174  -18.4730   32.5184 F   0  0  0  0  0  0  0  0  0  0  0  0
    4.6671  -16.9286   33.7119 C   0  0  0  0  0  0  0  0  0  0  0  0
    4.9463  -15.5883   34.0700 C   0  0  0  0  0  0  0  0  0  0  0  0
    4.2206  -14.5265   33.4801 C   0  0  0  0  0  0  0  0  0  0  0  0
    4.6398  -13.2468   33.7120 O   0  0  0  0  0  0  0  0  0  0  0  0
    4.5629  -12.3127   32.5777 C   0  0  0  0  0  0  0  0  0  0  0  0
    0.9866   -8.3780   30.4960 C   0  0  0  0  0  0  0  0  0  0  0  0
   -0.5458   -8.4854   30.3962 C   0  0  0  0  0  0  0  0  0  0  0  0
   -1.1969   -7.5963   31.4861 C   0  0  0  0  0  0  0  0  0  0  0  0
   -0.5617   -6.2146   31.6824 C   0  0  0  0  0  0  0  0  0  0  0  0
    0.2328   -5.8398   30.5269 N   0  0  0  0  0  0  0  0  0  0  0  0
    1.3837   -6.7361   30.4443 C   0  0  0  0  0  0  0  0  0  0  0  0
    2.0583   -9.0898   27.6787 H   0  0  0  0  0  0  0  0  0  0  0  0
    0.4869   -9.2965   28.5976 H   0  0  0  0  0  0  0  0  0  0  0  0
    1.7582   -7.8657   28.5441 H   0  0  0  0  0  0  0  0  0  0  0  0
    2.4721  -14.0363   30.6389 H   0  0  0  0  0  0  0  0  0  0  0  0
    2.1133  -16.4014   31.5579 H   0  0  0  0  0  0  0  0  0  0  0  0
    5.2551  -17.7494   34.1109 H   0  0  0  0  0  0  0  0  0  0  0  0
    5.7658  -15.3643   34.7461 H   0  0  0  0  0  0  0  0  0  0  0  0
    4.6528  -11.3136   33.0217 H   0  0  0  0  0  0  0  0  0  0  0  0
    5.5003  -12.5159   32.0410 H   0  0  0  0  0  0  0  0  0  0  0  0
    1.0951   -8.4352   31.5741 H   0  0  0  0  0  0  0  0  0  0  0  0
   -0.8814   -9.5176   30.5274 H   0  0  0  0  0  0  0  0  0  0  0  0
   -0.9050   -8.1244   29.4326 H   0  0  0  0  0  0  0  0  0  0  0  0
   -1.1638   -8.1307   32.4441 H   0  0  0  0  0  0  0  0  0  0  0  0
   -2.2505   -7.4930   31.2423 H   0  0  0  0  0  0  0  0  0  0  0  0
   -1.3298   -5.4597   31.8470 H   0  0  0  0  0  0  0  0  0  0  0  0
    0.0528   -6.2109   32.5921 H   0  0  0  0  0  0  0  0  0  0  0  0
    0.5532   -4.8743   30.6202 H   0  0  0  0  0  0  0  0  0  0  0  0
    2.0304   -6.5322   31.3105 H   0  0  0  0  0  0  0  0  0  0  0  0
    1.9896   -6.4317   29.5879 H   0  0  0  0  0  0  0  0  0  0  0  0
  1  2  1  0
  2  3  1  0
  3  4  2  0
  3  5  1  0
  5  6  2  0
  6  7  1  0
  7  8  2  0
  8  9  1  0
  9 10  1  0
  9 11  2  0
 11 12  1  0
 12 13  2  0
 13 14  1  0
 14 15  1  0
  2 16  1  0
 16 17  1  0
 17 18  1  0
 18 19  1  0
 19 20  1  0
 20 21  1  0
 15  5  1  0
 21 16  1  0
 13  7  1  0
  1 22  1  0
  1 23  1  0
  1 24  1  0
  6 25  1  0
  8 26  1  0
 11 27  1  0
 12 28  1  0
 15 29  1  0
 15 30  1  0
 16 31  1  0
 17 32  1  0
 17 33  1  0
 18 34  1  0
 18 35  1  0
 19 36  1  0
 19 37  1  0
 20 38  1  0
 21 39  1  0
 21 40  1  0
M  END
>  <Energy>  (1213) 
418.51773443078514

>  <compound_id>  (1213) 
57881

>  <target_id>  (1213) 
1

>  <reference_id>  (1213) 
44

>  <inspiration_ids>  (1213) 
[89, 44]

>  <energy_score>  (1213) 
342.7115571130454

>  <distance_score>  (1213) 
8.728484365679964

>  <path>  (1213) 
/opt/xchem-fragalysis-2/maxwin/BulkDock/SCRATCH/511022/C57881-P44/C57881-P44.minimised.mol

>  <scratch_subdir>  (1213) 
/opt/xchem-fragalysis-2/maxwin/BulkDock/SCRATCH/511022/C57881-P44

>  <fragmenstein_runtime>  (1213) 
14.720002174377441

>  <fragmenstein_outcome>  (1213) 
too moved

>  <fragmenstein_mode>  (1213) 
expansion

>  <fragmenstein_error>  (1213) 


$$$$
C57882-P44
     RDKit          3D

 40 42  0  0  0  0  0  0  0  0999 V2000
    2.8124  -12.0132   29.9741 O   0  0  0  0  0  0  0  0  0  0  0  0
    2.2123  -12.5864   30.8300 C   0  0  0  0  0  0  0  0  0  0  0  0
    0.8038  -12.3985   31.3235 N   0  0  0  0  0  0  0  0  0  0  0  0
   -0.5966  -11.0910   30.8182 C   0  0  0  0  0  0  0  0  0  0  0  0
   -0.6888   -9.2425   30.8196 C   0  0  0  0  0  0  0  0  0  0  0  0
    0.3721   -8.0986   30.7444 C   0  0  0  0  0  0  0  0  0  0  0  0
   -0.2224   -6.6818   30.5457 C   0  0  0  0  0  0  0  0  0  0  0  0
   -1.3403   -6.3457   31.5059 C   0  0  0  0  0  0  0  0  0  0  0  0
   -2.3512   -7.4013   31.3963 N   0  0  0  0  0  0  0  0  0  0  0  0
   -1.7632   -8.6897   31.8013 C   0  0  0  0  0  0  0  0  0  0  0  0
    3.0599  -13.7981   31.8244 C   0  0  0  0  0  0  0  0  0  0  0  0
    2.8068  -15.1201   32.0565 C   0  0  0  0  0  0  0  0  0  0  0  0
    3.5738  -15.9725   32.9499 C   0  0  0  0  0  0  0  0  0  0  0  0
    3.4449  -17.3724   32.8675 C   0  0  0  0  0  0  0  0  0  0  0  0
    4.3695  -18.1849   33.4920 C   0  0  0  0  0  0  0  0  0  0  0  0
    4.2971  -19.5134   33.3192 F   0  0  0  0  0  0  0  0  0  0  0  0
    5.3726  -17.6132   34.2707 C   0  0  0  0  0  0  0  0  0  0  0  0
    5.4475  -16.2096   34.4242 C   0  0  0  0  0  0  0  0  0  0  0  0
    4.5520  -15.3795   33.7473 C   0  0  0  0  0  0  0  0  0  0  0  0
    4.6827  -14.0101   33.8209 O   0  0  0  0  0  0  0  0  0  0  0  0
    4.3098  -13.2478   32.6084 C   0  0  0  0  0  0  0  0  0  0  0  0
    0.5972  -13.1098   31.9937 H   0  0  0  0  0  0  0  0  0  0  0  0
   -1.3263  -11.2692   30.0206 H   0  0  0  0  0  0  0  0  0  0  0  0
   -1.4708  -11.3499   31.4365 H   0  0  0  0  0  0  0  0  0  0  0  0
   -1.0192   -9.1654   29.7819 H   0  0  0  0  0  0  0  0  0  0  0  0
    0.9147   -8.0304   31.6872 H   0  0  0  0  0  0  0  0  0  0  0  0
    1.0489   -8.2915   29.9093 H   0  0  0  0  0  0  0  0  0  0  0  0
   -0.6699   -6.6166   29.5626 H   0  0  0  0  0  0  0  0  0  0  0  0
    0.5746   -5.9327   30.6032 H   0  0  0  0  0  0  0  0  0  0  0  0
   -1.7902   -5.3848   31.2340 H   0  0  0  0  0  0  0  0  0  0  0  0
   -0.9695   -6.2558   32.5336 H   0  0  0  0  0  0  0  0  0  0  0  0
   -3.1090   -7.1679   32.0429 H   0  0  0  0  0  0  0  0  0  0  0  0
   -2.5977   -9.3925   31.8823 H   0  0  0  0  0  0  0  0  0  0  0  0
   -1.3174   -8.5425   32.7911 H   0  0  0  0  0  0  0  0  0  0  0  0
    2.1796  -15.7615   31.4597 H   0  0  0  0  0  0  0  0  0  0  0  0
    2.6589  -17.8298   32.2833 H   0  0  0  0  0  0  0  0  0  0  0  0
    6.0853  -18.2674   34.7649 H   0  0  0  0  0  0  0  0  0  0  0  0
    6.2079  -15.7569   35.0504 H   0  0  0  0  0  0  0  0  0  0  0  0
    5.2104  -13.1559   31.9965 H   0  0  0  0  0  0  0  0  0  0  0  0
    4.2064  -12.2140   32.9123 H   0  0  0  0  0  0  0  0  0  0  0  0
  1  2  2  0
  2  3  1  0
  3  4  1  0
  4  5  1  0
  5  6  1  0
  6  7  1  0
  7  8  1  0
  8  9  1  0
  9 10  1  0
  2 11  1  0
 11 12  2  0
 12 13  1  0
 13 14  2  0
 14 15  1  0
 15 16  1  0
 15 17  2  0
 17 18  1  0
 18 19  2  0
 19 20  1  0
 20 21  1  0
 10  5  1  0
 21 11  1  0
 19 13  1  0
  3 22  1  0
  4 23  1  0
  4 24  1  0
  5 25  1  0
  6 26  1  0
  6 27  1  0
  7 28  1  0
  7 29  1  0
  8 30  1  0
  8 31  1  0
  9 32  1  0
 10 33  1  0
 10 34  1  0
 12 35  1  0
 14 36  1  0
 17 37  1  0
 18 38  1  0
 21 39  1  0
 21 40  1  0
M  END
>  <Energy>  (1214) 
190.44256721017294

>  <compound_id>  (1214) 
57882

>  <target_id>  (1214) 
1

>  <reference_id>  (1214) 
44

>  <inspiration_ids>  (1214) 
[89, 44]

>  <energy_score>  (1214) 
149.32493936474611

>  <distance_score>  (1214) 
8.690161592235427

>  <path>  (1214) 
/opt/xchem-fragalysis-2/maxwin/BulkDock/SCRATCH/511022/C57882-P44/C57882-P44.minimised.mol

>  <scratch_subdir>  (1214) 
/opt/xchem-fragalysis-2/maxwin/BulkDock/SCRATCH/511022/C57882-P44

>  <fragmenstein_runtime>  (1214) 
11.849081993103027

>  <fragmenstein_outcome>  (1214) 
too moved

>  <fragmenstein_mode>  (1214) 
expansion

>  <fragmenstein_error>  (1214) 


$$$$
C57883-P44
     RDKit          3D

 45 47  0  0  0  0  0  0  0  0999 V2000
    1.4033   -9.0288   28.2659 C   0  0  0  0  0  0  0  0  0  0  0  0
    1.2867   -9.9286   29.3879 N   0  0  0  0  0  0  0  0  0  0  0  0
    1.3400   -8.2026   29.9486 C   0  0  0  0  0  0  0  0  0  0  0  0
    2.1179   -6.6351   29.6770 C   0  0  0  0  0  0  0  0  0  0  0  0
    1.3500   -5.4314   29.2940 N   0  0  0  0  0  0  0  0  0  0  0  0
    2.2303   -4.3451   28.7796 C   0  0  0  0  0  0  0  0  0  0  0  0
    1.7980   -2.8788   29.0672 C   0  0  0  0  0  0  0  0  0  0  0  0
    0.3623   -2.6294   29.0812 N   0  0  0  0  0  0  0  0  0  0  0  0
   -0.3555   -3.6578   29.8433 C   0  0  0  0  0  0  0  0  0  0  0  0
    0.4698   -4.8828   30.3397 C   0  0  0  0  0  0  0  0  0  0  0  0
    2.4051  -11.4937   29.9146 C   0  0  0  0  0  0  0  0  0  0  0  0
    3.3588  -11.7210   29.3055 O   0  0  0  0  0  0  0  0  0  0  0  0
    2.3674  -12.6383   31.3589 C   0  0  0  0  0  0  0  0  0  0  0  0
    2.6016  -13.9849   31.3206 C   0  0  0  0  0  0  0  0  0  0  0  0
    2.9021  -15.0820   32.3465 C   0  0  0  0  0  0  0  0  0  0  0  0
    2.5504  -16.4338   32.1465 C   0  0  0  0  0  0  0  0  0  0  0  0
    3.2873  -17.4747   32.7205 C   0  0  0  0  0  0  0  0  0  0  0  0
    2.9911  -18.7530   32.4307 F   0  0  0  0  0  0  0  0  0  0  0  0
    4.3824  -17.1939   33.5259 C   0  0  0  0  0  0  0  0  0  0  0  0
    4.6645  -15.8516   33.8359 C   0  0  0  0  0  0  0  0  0  0  0  0
    3.8892  -14.8119   33.2646 C   0  0  0  0  0  0  0  0  0  0  0  0
    4.2917  -13.5282   33.4202 O   0  0  0  0  0  0  0  0  0  0  0  0
    4.0502  -12.6887   32.2041 C   0  0  0  0  0  0  0  0  0  0  0  0
    0.3480   -8.9942   27.9994 H   0  0  0  0  0  0  0  0  0  0  0  0
    1.8309   -8.0327   28.1330 H   0  0  0  0  0  0  0  0  0  0  0  0
    2.2992   -9.2726   27.6862 H   0  0  0  0  0  0  0  0  0  0  0  0
    1.1884   -8.2303   31.0395 H   0  0  0  0  0  0  0  0  0  0  0  0
    0.2686   -7.9402   29.7808 H   0  0  0  0  0  0  0  0  0  0  0  0
    2.9586   -6.7757   28.9819 H   0  0  0  0  0  0  0  0  0  0  0  0
    2.5637   -6.3664   30.6444 H   0  0  0  0  0  0  0  0  0  0  0  0
    2.3053   -4.4805   27.6944 H   0  0  0  0  0  0  0  0  0  0  0  0
    3.2465   -4.4561   29.1809 H   0  0  0  0  0  0  0  0  0  0  0  0
    2.2750   -2.2126   28.3393 H   0  0  0  0  0  0  0  0  0  0  0  0
    2.1968   -2.5886   30.0480 H   0  0  0  0  0  0  0  0  0  0  0  0
   -0.0008   -2.6315   28.1240 H   0  0  0  0  0  0  0  0  0  0  0  0
   -1.1638   -4.0262   29.2069 H   0  0  0  0  0  0  0  0  0  0  0  0
   -0.8327   -3.1833   30.7080 H   0  0  0  0  0  0  0  0  0  0  0  0
   -0.2321   -5.6548   30.6751 H   0  0  0  0  0  0  0  0  0  0  0  0
    1.0632   -4.5848   31.2142 H   0  0  0  0  0  0  0  0  0  0  0  0
    2.5581  -14.4578   30.3342 H   0  0  0  0  0  0  0  0  0  0  0  0
    1.7452  -16.6803   31.4654 H   0  0  0  0  0  0  0  0  0  0  0  0
    4.9821  -18.0050   33.9249 H   0  0  0  0  0  0  0  0  0  0  0  0
    5.5108  -15.6017   34.4686 H   0  0  0  0  0  0  0  0  0  0  0  0
    4.9064  -12.9329   31.5793 H   0  0  0  0  0  0  0  0  0  0  0  0
    4.3684  -11.7039   32.5926 H   0  0  0  0  0  0  0  0  0  0  0  0
  1  2  1  0
  2  3  1  0
  3  4  1  0
  4  5  1  0
  5  6  1  0
  6  7  1  0
  7  8  1  0
  8  9  1  0
  9 10  1  0
  2 11  1  0
 11 12  2  0
 11 13  1  0
 13 14  2  0
 14 15  1  0
 15 16  2  0
 16 17  1  0
 17 18  1  0
 17 19  2  0
 19 20  1  0
 20 21  2  0
 21 22  1  0
 22 23  1  0
 10  5  1  0
 23 13  1  0
 21 15  1  0
  1 24  1  0
  1 25  1  0
  1 26  1  0
  3 27  1  0
  3 28  1  0
  4 29  1  0
  4 30  1  0
  6 31  1  0
  6 32  1  0
  7 33  1  0
  7 34  1  0
  8 35  1  0
  9 36  1  0
  9 37  1  0
 10 38  1  0
 10 39  1  0
 14 40  1  0
 16 41  1  0
 19 42  1  0
 20 43  1  0
 23 44  1  0
 23 45  1  0
M  END
>  <Energy>  (1215) 
610.5144984490255

>  <compound_id>  (1215) 
57883

>  <target_id>  (1215) 
1

>  <reference_id>  (1215) 
44

>  <inspiration_ids>  (1215) 
[89, 44]

>  <energy_score>  (1215) 
469.211789477916

>  <distance_score>  (1215) 
7.170574875019452

>  <path>  (1215) 
/opt/xchem-fragalysis-2/maxwin/BulkDock/SCRATCH/511022/C57883-P44/C57883-P44.minimised.mol

>  <scratch_subdir>  (1215) 
/opt/xchem-fragalysis-2/maxwin/BulkDock/SCRATCH/511022/C57883-P44

>  <fragmenstein_runtime>  (1215) 
18.23148488998413

>  <fragmenstein_outcome>  (1215) 
too moved

>  <fragmenstein_mode>  (1215) 
expansion

>  <fragmenstein_error>  (1215) 


$$$$
C57884-P44
     RDKit          3D

 38 40  0  0  0  0  0  0  0  0999 V2000
    3.4072  -11.5688   32.3360 O   0  0  0  0  0  0  0  0  0  0  0  0
    3.0641  -12.2160   31.3881 C   0  0  0  0  0  0  0  0  0  0  0  0
    2.3581  -11.4074   29.9054 N   0  0  0  0  0  0  0  0  0  0  0  0
    1.8462   -9.4629   29.5331 C   0  0  0  0  0  0  0  0  0  0  0  0
    0.8344   -8.1568   30.3414 C   0  0  0  0  0  0  0  0  0  0  0  0
    1.5045   -6.8984   30.6406 O   0  0  0  0  0  0  0  0  0  0  0  0
    1.2678   -5.6347   29.9651 C   0  0  0  0  0  0  0  0  0  0  0  0
    1.9201   -4.3939   30.6408 C   0  0  0  0  0  0  0  0  0  0  0  0
    0.6985   -3.6115   30.3859 N   0  0  0  0  0  0  0  0  0  0  0  0
   -0.0491   -4.8672   30.2044 C   0  0  0  0  0  0  0  0  0  0  0  0
    3.2144  -13.9387   31.7903 C   0  0  0  0  0  0  0  0  0  0  0  0
    2.8597  -15.2544   31.6720 C   0  0  0  0  0  0  0  0  0  0  0  0
    3.2466  -16.3601   32.5975 C   0  0  0  0  0  0  0  0  0  0  0  0
    2.6632  -17.6241   32.5453 C   0  0  0  0  0  0  0  0  0  0  0  0
    3.3269  -18.7311   33.0833 C   0  0  0  0  0  0  0  0  0  0  0  0
    2.8398  -19.9637   32.9124 F   0  0  0  0  0  0  0  0  0  0  0  0
    4.5162  -18.5969   33.7720 C   0  0  0  0  0  0  0  0  0  0  0  0
    5.0098  -17.3216   33.9812 C   0  0  0  0  0  0  0  0  0  0  0  0
    4.3478  -16.2153   33.4287 C   0  0  0  0  0  0  0  0  0  0  0  0
    4.8465  -14.9922   33.7556 O   0  0  0  0  0  0  0  0  0  0  0  0
    4.2512  -13.8282   33.1074 C   0  0  0  0  0  0  0  0  0  0  0  0
    2.2237  -12.0698   29.2283 H   0  0  0  0  0  0  0  0  0  0  0  0
    2.1991   -8.9854   28.6007 H   0  0  0  0  0  0  0  0  0  0  0  0
    0.8267   -9.7244   29.0897 H   0  0  0  0  0  0  0  0  0  0  0  0
    0.3884   -8.4966   31.2786 H   0  0  0  0  0  0  0  0  0  0  0  0
   -0.0240   -7.9623   29.6942 H   0  0  0  0  0  0  0  0  0  0  0  0
    1.5982   -5.6901   28.9241 H   0  0  0  0  0  0  0  0  0  0  0  0
    2.1400   -4.5242   31.7068 H   0  0  0  0  0  0  0  0  0  0  0  0
    2.8175   -4.0098   30.1463 H   0  0  0  0  0  0  0  0  0  0  0  0
    0.7390   -3.0385   29.5399 H   0  0  0  0  0  0  0  0  0  0  0  0
   -0.6009   -5.1826   31.0965 H   0  0  0  0  0  0  0  0  0  0  0  0
   -0.7268   -4.8315   29.3534 H   0  0  0  0  0  0  0  0  0  0  0  0
    2.3969  -15.6553   30.7761 H   0  0  0  0  0  0  0  0  0  0  0  0
    1.7061  -17.7559   32.0543 H   0  0  0  0  0  0  0  0  0  0  0  0
    5.0086  -19.4697   34.1867 H   0  0  0  0  0  0  0  0  0  0  0  0
    5.8954  -17.1785   34.5863 H   0  0  0  0  0  0  0  0  0  0  0  0
    3.8055  -13.3565   33.9601 H   0  0  0  0  0  0  0  0  0  0  0  0
    5.1006  -13.1976   32.8090 H   0  0  0  0  0  0  0  0  0  0  0  0
  1  2  2  0
  2  3  1  0
  3  4  1  0
  4  5  1  0
  5  6  1  0
  6  7  1  0
  7  8  1  0
  8  9  1  0
  9 10  1  0
  2 11  1  0
 11 12  2  0
 12 13  1  0
 13 14  2  0
 14 15  1  0
 15 16  1  0
 15 17  2  0
 17 18  1  0
 18 19  2  0
 19 20  1  0
 20 21  1  0
 10  7  1  0
 21 11  1  0
 19 13  1  0
  3 22  1  0
  4 23  1  0
  4 24  1  0
  5 25  1  0
  5 26  1  0
  7 27  1  0
  8 28  1  0
  8 29  1  0
  9 30  1  0
 10 31  1  0
 10 32  1  0
 12 33  1  0
 14 34  1  0
 17 35  1  0
 18 36  1  0
 21 37  1  0
 21 38  1  0
M  END
>  <Energy>  (1216) 
342.31656749030287

>  <compound_id>  (1216) 
57884

>  <target_id>  (1216) 
1

>  <reference_id>  (1216) 
44

>  <inspiration_ids>  (1216) 
[89, 44]

>  <energy_score>  (1216) 
280.51133287700463

>  <distance_score>  (1216) 
7.07178756303463

>  <path>  (1216) 
/opt/xchem-fragalysis-2/maxwin/BulkDock/SCRATCH/511022/C57884-P44/C57884-P44.minimised.mol

>  <scratch_subdir>  (1216) 
/opt/xchem-fragalysis-2/maxwin/BulkDock/SCRATCH/511022/C57884-P44

>  <fragmenstein_runtime>  (1216) 
15.816774129867554

>  <fragmenstein_outcome>  (1216) 
too moved

>  <fragmenstein_mode>  (1216) 
expansion

>  <fragmenstein_error>  (1216) 


$$$$
C57886-P44
     RDKit          3D

 42 45  0  0  0  0  0  0  0  0999 V2000
    3.9305  -13.5815   32.2096 O   0  0  0  0  0  0  0  0  0  0  0  0
    2.6617  -13.9684   31.5714 S   0  0  0  0  0  0  0  0  0  0  0  0
    1.6458  -14.2484   32.6453 O   0  0  0  0  0  0  0  0  0  0  0  0
    2.3385  -11.9704   30.2231 N   0  0  0  0  0  0  0  0  0  0  0  0
    2.0383   -9.8388   29.7276 C   0  0  0  0  0  0  0  0  0  0  0  0
    1.0097   -8.3005   30.3873 C   0  0  0  0  0  0  0  0  0  0  0  0
    1.6015   -6.8625   29.8503 C   0  0  0  0  0  0  0  0  0  0  0  0
    0.7155   -5.7719   30.4476 C   0  0  0  0  0  0  0  0  0  0  0  0
   -0.0898   -6.5733   31.4516 C   0  0  0  0  0  0  0  0  0  0  0  0
   -1.2139   -7.2636   30.7171 C   0  0  0  0  0  0  0  0  0  0  0  0
   -0.4905   -8.4396   30.0472 C   0  0  0  0  0  0  0  0  0  0  0  0
    0.7618   -7.7473   31.7682 N   0  0  0  0  0  0  0  0  0  0  0  0
    2.6665  -16.2966   31.4216 C   0  0  0  0  0  0  0  0  0  0  0  0
    2.0842  -17.7419   31.8239 C   0  0  0  0  0  0  0  0  0  0  0  0
    2.7699  -19.4741   31.0205 C   0  0  0  0  0  0  0  0  0  0  0  0
    1.8877  -20.6011   29.7573 C   0  0  0  0  0  0  0  0  0  0  0  0
    1.6682  -21.3800   28.1872 C   0  0  0  0  0  0  0  0  0  0  0  0
    3.2028  -21.0803   27.2350 C   0  0  0  0  0  0  0  0  0  0  0  0
    4.1076  -19.6116   28.1446 C   0  0  0  0  0  0  0  0  0  0  0  0
    4.0831  -19.1241   30.0067 C   0  0  0  0  0  0  0  0  0  0  0  0
    4.6618  -18.3986   31.0282 O   0  0  0  0  0  0  0  0  0  0  0  0
    3.9155  -17.1074   31.6059 C   0  0  0  0  0  0  0  0  0  0  0  0
    3.3676  -11.9040   30.3177 H   0  0  0  0  0  0  0  0  0  0  0  0
    2.3012   -9.2755   28.7901 H   0  0  0  0  0  0  0  0  0  0  0  0
    0.9242   -9.9846   29.2558 H   0  0  0  0  0  0  0  0  0  0  0  0
    1.8234   -6.8087   28.7891 H   0  0  0  0  0  0  0  0  0  0  0  0
    2.5754   -6.5811   30.2723 H   0  0  0  0  0  0  0  0  0  0  0  0
    1.3300   -5.0164   30.9513 H   0  0  0  0  0  0  0  0  0  0  0  0
    0.0980   -5.2618   29.7050 H   0  0  0  0  0  0  0  0  0  0  0  0
   -0.4196   -6.0005   32.3212 H   0  0  0  0  0  0  0  0  0  0  0  0
   -1.7269   -6.6230   29.9932 H   0  0  0  0  0  0  0  0  0  0  0  0
   -1.9622   -7.6380   31.4262 H   0  0  0  0  0  0  0  0  0  0  0  0
   -0.8736   -9.3715   30.4823 H   0  0  0  0  0  0  0  0  0  0  0  0
   -0.6729   -8.4914   28.9810 H   0  0  0  0  0  0  0  0  0  0  0  0
    1.6248   -7.4506   32.2190 H   0  0  0  0  0  0  0  0  0  0  0  0
    1.0606  -17.8416   32.1736 H   0  0  0  0  0  0  0  0  0  0  0  0
    2.0160  -21.6989   30.2465 H   0  0  0  0  0  0  0  0  0  0  0  0
    1.6362  -22.4570   28.3198 H   0  0  0  0  0  0  0  0  0  0  0  0
    3.3474  -21.3815   26.2134 H   0  0  0  0  0  0  0  0  0  0  0  0
    4.9728  -19.3323   27.6125 H   0  0  0  0  0  0  0  0  0  0  0  0
    3.9025  -16.7425   30.6024 H   0  0  0  0  0  0  0  0  0  0  0  0
    4.4679  -16.7929   32.4958 H   0  0  0  0  0  0  0  0  0  0  0  0
  1  2  2  0
  2  3  2  0
  2  4  1  0
  4  5  1  0
  5  6  1  0
  6  7  1  0
  7  8  1  0
  8  9  1  0
  9 10  1  0
 10 11  1  0
  9 12  1  0
  2 13  1  0
 13 14  2  0
 14 15  1  0
 15 16  2  0
 16 17  1  0
 17 18  2  0
 18 19  1  0
 19 20  2  0
 20 21  1  0
 21 22  1  0
 11  6  1  0
 22 13  1  0
 12  6  1  0
 20 15  1  0
  4 23  1  0
  5 24  1  0
  5 25  1  0
  7 26  1  0
  7 27  1  0
  8 28  1  0
  8 29  1  0
  9 30  1  0
 10 31  1  0
 10 32  1  0
 11 33  1  0
 11 34  1  0
 12 35  1  0
 14 36  1  0
 16 37  1  0
 17 38  1  0
 18 39  1  0
 19 40  1  0
 22 41  1  0
 22 42  1  0
M  END
>  <Energy>  (1217) 
1355.6887016153987

>  <compound_id>  (1217) 
57886

>  <target_id>  (1217) 
1

>  <reference_id>  (1217) 
44

>  <inspiration_ids>  (1217) 
[89, 44]

>  <energy_score>  (1217) 
1358.3650420250276

>  <distance_score>  (1217) 
6.829674377095374

>  <path>  (1217) 
/opt/xchem-fragalysis-2/maxwin/BulkDock/SCRATCH/511022/C57886-P44/C57886-P44.minimised.mol

>  <scratch_subdir>  (1217) 
/opt/xchem-fragalysis-2/maxwin/BulkDock/SCRATCH/511022/C57886-P44

>  <fragmenstein_runtime>  (1217) 
8.375414371490479

>  <fragmenstein_outcome>  (1217) 
too moved

>  <fragmenstein_mode>  (1217) 
expansion

>  <fragmenstein_error>  (1217) 


$$$$
C22996-P44
     RDKit          3D

 39 41  0  0  0  0  0  0  0  0999 V2000
    3.5250  -11.7798   32.2539 O   0  0  0  0  0  0  0  0  0  0  0  0
    2.7810  -12.5367   31.2534 S   0  0  0  0  0  0  0  0  0  0  0  0
    1.3594  -12.6458   31.4456 O   0  0  0  0  0  0  0  0  0  0  0  0
    2.3849  -11.1655   29.6853 N   0  0  0  0  0  0  0  0  0  0  0  0
    1.4665   -9.3320   29.4119 C   0  0  0  0  0  0  0  0  0  0  0  0
    0.9216   -8.0465   30.2444 C   0  0  0  0  0  0  0  0  0  0  0  0
    1.3643   -6.7775   29.9914 C   0  0  0  0  0  0  0  0  0  0  0  0
    0.7854   -5.4898   30.5316 C   0  0  0  0  0  0  0  0  0  0  0  0
   -0.2636   -5.6772   31.5228 N   0  0  0  0  0  0  0  0  0  0  0  0
   -1.1190   -6.8058   31.1575 C   0  0  0  0  0  0  0  0  0  0  0  0
   -0.3166   -8.1272   31.1149 C   0  0  0  0  0  0  0  0  0  0  0  0
    3.3716  -14.1529   32.1025 C   0  0  0  0  0  0  0  0  0  0  0  0
    2.9174  -15.4258   32.0249 C   0  0  0  0  0  0  0  0  0  0  0  0
    3.5247  -16.4753   32.8628 C   0  0  0  0  0  0  0  0  0  0  0  0
    3.0539  -17.7786   32.8433 C   0  0  0  0  0  0  0  0  0  0  0  0
    3.7597  -18.7642   33.5243 C   0  0  0  0  0  0  0  0  0  0  0  0
    3.1181  -20.3075   33.6777 Cl  0  0  0  0  0  0  0  0  0  0  0  0
    4.9335  -18.5083   34.2076 C   0  0  0  0  0  0  0  0  0  0  0  0
    5.3424  -17.2022   34.3170 C   0  0  0  0  0  0  0  0  0  0  0  0
    4.6398  -16.1980   33.6615 C   0  0  0  0  0  0  0  0  0  0  0  0
    5.0901  -14.9410   33.9176 O   0  0  0  0  0  0  0  0  0  0  0  0
    4.4108  -13.8513   33.2547 C   0  0  0  0  0  0  0  0  0  0  0  0
    1.4312  -11.5297   29.8989 H   0  0  0  0  0  0  0  0  0  0  0  0
    2.0196   -8.8825   28.5738 H   0  0  0  0  0  0  0  0  0  0  0  0
    0.5106   -9.6528   28.9462 H   0  0  0  0  0  0  0  0  0  0  0  0
    2.1803   -6.6094   29.2900 H   0  0  0  0  0  0  0  0  0  0  0  0
    1.5920   -4.8970   30.9774 H   0  0  0  0  0  0  0  0  0  0  0  0
    0.3903   -4.9002   29.6972 H   0  0  0  0  0  0  0  0  0  0  0  0
    0.1684   -5.8693   32.4262 H   0  0  0  0  0  0  0  0  0  0  0  0
   -1.9207   -6.8998   31.8985 H   0  0  0  0  0  0  0  0  0  0  0  0
   -1.6068   -6.6178   30.1929 H   0  0  0  0  0  0  0  0  0  0  0  0
   -0.0217   -8.3756   32.1400 H   0  0  0  0  0  0  0  0  0  0  0  0
   -0.9593   -8.9356   30.7645 H   0  0  0  0  0  0  0  0  0  0  0  0
    2.2923  -15.8298   31.2488 H   0  0  0  0  0  0  0  0  0  0  0  0
    2.1184  -18.0144   32.3502 H   0  0  0  0  0  0  0  0  0  0  0  0
    5.4499  -19.2932   34.7536 H   0  0  0  0  0  0  0  0  0  0  0  0
    6.1441  -16.9451   34.9882 H   0  0  0  0  0  0  0  0  0  0  0  0
    5.2177  -13.2130   32.8711 H   0  0  0  0  0  0  0  0  0  0  0  0
    3.9656  -13.3319   34.0856 H   0  0  0  0  0  0  0  0  0  0  0  0
  1  2  2  0
  2  3  2  0
  2  4  1  0
  4  5  1  0
  5  6  1  0
  6  7  2  0
  7  8  1  0
  8  9  1  0
  9 10  1  0
 10 11  1  0
  2 12  1  0
 12 13  2  0
 13 14  1  0
 14 15  2  0
 15 16  1  0
 16 17  1  0
 16 18  2  0
 18 19  1  0
 19 20  2  0
 20 21  1  0
 21 22  1  0
 11  6  1  0
 22 12  1  0
 20 14  1  0
  4 23  1  0
  5 24  1  0
  5 25  1  0
  7 26  1  0
  8 27  1  0
  8 28  1  0
  9 29  1  0
 10 30  1  0
 10 31  1  0
 11 32  1  0
 11 33  1  0
 13 34  1  0
 15 35  1  0
 18 36  1  0
 19 37  1  0
 22 38  1  0
 22 39  1  0
M  END
>  <Energy>  (1218) 
228.13771147783567

>  <compound_id>  (1218) 
22996

>  <target_id>  (1218) 
1

>  <reference_id>  (1218) 
44

>  <inspiration_ids>  (1218) 
[89, 44]

>  <energy_score>  (1218) 
272.65103429803327

>  <distance_score>  (1218) 
8.236776968996782

>  <path>  (1218) 
/opt/xchem-fragalysis-2/maxwin/BulkDock/SCRATCH/511022/C22996-P44/C22996-P44.minimised.mol

>  <scratch_subdir>  (1218) 
/opt/xchem-fragalysis-2/maxwin/BulkDock/SCRATCH/511022/C22996-P44

>  <fragmenstein_runtime>  (1218) 
9.477353811264038

>  <fragmenstein_outcome>  (1218) 
too moved

>  <fragmenstein_mode>  (1218) 
expansion

>  <fragmenstein_error>  (1218) 


$$$$
C57887-P44
     RDKit          3D

 36 38  0  0  0  0  0  0  0  0999 V2000
    3.7958  -13.4019   32.0900 O   0  0  0  0  0  0  0  0  0  0  0  0
    2.6605  -13.7944   31.2538 S   0  0  0  0  0  0  0  0  0  0  0  0
    2.6058  -14.3736   29.8980 O   0  0  0  0  0  0  0  0  0  0  0  0
    2.4043  -11.7779   29.9731 N   0  0  0  0  0  0  0  0  0  0  0  0
    1.9635   -9.6854   29.6394 C   0  0  0  0  0  0  0  0  0  0  0  0
    2.0188   -8.3680   28.4676 C   0  0  0  0  0  0  0  0  0  0  0  0
    2.9083   -7.8881   27.3192 C   0  0  0  0  0  0  0  0  0  0  0  0
    3.2516   -6.5971   27.4160 C   0  0  0  0  0  0  0  0  0  0  0  0
    2.6496   -5.9583   28.6017 C   0  0  0  0  0  0  0  0  0  0  0  0
    1.8905   -7.0463   29.2162 N   0  0  0  0  0  0  0  0  0  0  0  0
    2.8135  -16.1317   31.5583 C   0  0  0  0  0  0  0  0  0  0  0  0
    2.0634  -17.5455   31.7113 C   0  0  0  0  0  0  0  0  0  0  0  0
    2.7705  -19.3701   31.1126 C   0  0  0  0  0  0  0  0  0  0  0  0
    1.8822  -20.4304   29.7864 C   0  0  0  0  0  0  0  0  0  0  0  0
    1.6063  -21.4813   28.3382 C   0  0  0  0  0  0  0  0  0  0  0  0
    2.0103  -23.0583   29.7733 Cl  0  0  0  0  0  0  0  0  0  0  0  0
    3.1139  -21.1442   27.2907 C   0  0  0  0  0  0  0  0  0  0  0  0
    4.0619  -19.6409   28.1714 C   0  0  0  0  0  0  0  0  0  0  0  0
    4.0749  -19.0999   30.0518 C   0  0  0  0  0  0  0  0  0  0  0  0
    4.7289  -18.3387   31.0465 O   0  0  0  0  0  0  0  0  0  0  0  0
    4.0637  -17.1404   32.0890 C   0  0  0  0  0  0  0  0  0  0  0  0
    1.4323  -11.8469   30.2987 H   0  0  0  0  0  0  0  0  0  0  0  0
    0.8500   -9.8713   29.2707 H   0  0  0  0  0  0  0  0  0  0  0  0
    1.4994   -8.9669   30.4060 H   0  0  0  0  0  0  0  0  0  0  0  0
    1.0583   -8.5891   28.0556 H   0  0  0  0  0  0  0  0  0  0  0  0
    3.2501   -8.5160   26.5004 H   0  0  0  0  0  0  0  0  0  0  0  0
    3.8854   -6.0725   26.7129 H   0  0  0  0  0  0  0  0  0  0  0  0
    3.4203   -5.5990   29.2896 H   0  0  0  0  0  0  0  0  0  0  0  0
    2.0092   -5.1172   28.3238 H   0  0  0  0  0  0  0  0  0  0  0  0
    0.9817   -6.7817   29.5863 H   0  0  0  0  0  0  0  0  0  0  0  0
    0.9746  -17.5614   31.6150 H   0  0  0  0  0  0  0  0  0  0  0  0
    2.2484  -21.3049   30.2923 H   0  0  0  0  0  0  0  0  0  0  0  0
    3.2646  -21.4595   26.2732 H   0  0  0  0  0  0  0  0  0  0  0  0
    4.9051  -19.3399   27.6017 H   0  0  0  0  0  0  0  0  0  0  0  0
    3.7401  -17.7917   32.9291 H   0  0  0  0  0  0  0  0  0  0  0  0
    4.8632  -16.6739   32.6769 H   0  0  0  0  0  0  0  0  0  0  0  0
  1  2  2  0
  2  3  2  0
  2  4  1  0
  4  5  1  0
  5  6  1  0
  6  7  1  0
  7  8  2  0
  8  9  1  0
  9 10  1  0
  2 11  1  0
 11 12  2  0
 12 13  1  0
 13 14  2  0
 14 15  1  0
 15 16  1  0
 15 17  2  0
 17 18  1  0
 18 19  2  0
 19 20  1  0
 20 21  1  0
 10  6  1  0
 21 11  1  0
 19 13  1  0
  4 22  1  0
  5 23  1  0
  5 24  1  0
  6 25  1  0
  7 26  1  0
  8 27  1  0
  9 28  1  0
  9 29  1  0
 10 30  1  0
 12 31  1  0
 14 32  1  0
 17 33  1  0
 18 34  1  0
 21 35  1  0
 21 36  1  0
M  END
>  <Energy>  (1219) 
1441.349726681246

>  <compound_id>  (1219) 
57887

>  <target_id>  (1219) 
1

>  <reference_id>  (1219) 
44

>  <inspiration_ids>  (1219) 
[89, 44]

>  <energy_score>  (1219) 
1468.904093803094

>  <distance_score>  (1219) 
6.923783236420897

>  <path>  (1219) 
/opt/xchem-fragalysis-2/maxwin/BulkDock/SCRATCH/511022/C57887-P44/C57887-P44.minimised.mol

>  <scratch_subdir>  (1219) 
/opt/xchem-fragalysis-2/maxwin/BulkDock/SCRATCH/511022/C57887-P44

>  <fragmenstein_runtime>  (1219) 
10.190532922744751

>  <fragmenstein_outcome>  (1219) 
too moved

>  <fragmenstein_mode>  (1219) 
expansion

>  <fragmenstein_error>  (1219) 


$$$$
C42174-P44
     RDKit          3D

 38 40  0  0  0  0  0  0  0  0999 V2000
    2.6254  -14.1402   30.1615 O   0  0  0  0  0  0  0  0  0  0  0  0
    2.5645  -13.1617   31.2339 S   0  0  0  0  0  0  0  0  0  0  0  0
    3.7636  -12.8111   31.9853 O   0  0  0  0  0  0  0  0  0  0  0  0
    2.1410  -11.4683   29.7798 N   0  0  0  0  0  0  0  0  0  0  0  0
    1.3996   -9.5077   29.4546 C   0  0  0  0  0  0  0  0  0  0  0  0
    0.3257   -8.4609   30.1888 C   0  0  0  0  0  0  0  0  0  0  0  0
    0.8443   -7.1158   30.7301 C   0  0  0  0  0  0  0  0  0  0  0  0
   -0.4224   -6.4215   31.1992 C   0  0  0  0  0  0  0  0  0  0  0  0
   -1.2082   -7.5768   31.7922 C   0  0  0  0  0  0  0  0  0  0  0  0
   -0.8600   -8.7850   31.0086 N   0  0  0  0  0  0  0  0  0  0  0  0
    1.8047  -14.7711   32.6338 C   0  0  0  0  0  0  0  0  0  0  0  0
    2.0206  -16.0886   32.2030 C   0  0  0  0  0  0  0  0  0  0  0  0
    0.7561  -17.0684   31.9840 C   0  0  0  0  0  0  0  0  0  0  0  0
    0.5464  -17.6338   30.7288 C   0  0  0  0  0  0  0  0  0  0  0  0
   -0.3601  -18.7413   29.7146 C   0  0  0  0  0  0  0  0  0  0  0  0
    1.4790  -20.6351   29.4982 Br  0  0  0  0  0  0  0  0  0  0  0  0
   -1.5801  -18.7097   30.4134 C   0  0  0  0  0  0  0  0  0  0  0  0
   -1.6943  -17.6914   31.5786 C   0  0  0  0  0  0  0  0  0  0  0  0
   -0.5533  -16.8702   32.2766 C   0  0  0  0  0  0  0  0  0  0  0  0
   -0.8538  -15.6536   32.8402 O   0  0  0  0  0  0  0  0  0  0  0  0
    0.2929  -14.7934   33.2471 C   0  0  0  0  0  0  0  0  0  0  0  0
    1.1831  -11.6673   30.0865 H   0  0  0  0  0  0  0  0  0  0  0  0
    2.0719   -8.9244   28.8223 H   0  0  0  0  0  0  0  0  0  0  0  0
    0.5881   -9.8012   28.7488 H   0  0  0  0  0  0  0  0  0  0  0  0
   -0.2116   -8.1547   29.2876 H   0  0  0  0  0  0  0  0  0  0  0  0
    1.4895   -7.2497   31.6022 H   0  0  0  0  0  0  0  0  0  0  0  0
    1.3776   -6.5266   29.9791 H   0  0  0  0  0  0  0  0  0  0  0  0
   -0.9666   -5.9801   30.3579 H   0  0  0  0  0  0  0  0  0  0  0  0
   -0.2184   -5.6341   31.9304 H   0  0  0  0  0  0  0  0  0  0  0  0
   -2.2863   -7.3941   31.7715 H   0  0  0  0  0  0  0  0  0  0  0  0
   -0.9106   -7.7339   32.8358 H   0  0  0  0  0  0  0  0  0  0  0  0
   -0.6328   -9.5424   31.6517 H   0  0  0  0  0  0  0  0  0  0  0  0
    2.8328  -16.3005   31.5148 H   0  0  0  0  0  0  0  0  0  0  0  0
    0.2364  -16.6561   30.2065 H   0  0  0  0  0  0  0  0  0  0  0  0
   -2.4543  -19.2749   30.1150 H   0  0  0  0  0  0  0  0  0  0  0  0
   -2.7052  -17.4896   31.9447 H   0  0  0  0  0  0  0  0  0  0  0  0
    0.3840  -15.1323   34.2789 H   0  0  0  0  0  0  0  0  0  0  0  0
   -0.1170  -13.7995   33.1912 H   0  0  0  0  0  0  0  0  0  0  0  0
  1  2  2  0
  2  3  2  0
  2  4  1  0
  4  5  1  0
  5  6  1  0
  6  7  1  0
  7  8  1  0
  8  9  1  0
  9 10  1  0
  2 11  1  0
 11 12  2  0
 12 13  1  0
 13 14  2  0
 14 15  1  0
 15 16  1  0
 15 17  2  0
 17 18  1  0
 18 19  2  0
 19 20  1  0
 20 21  1  0
 10  6  1  0
 21 11  1  0
 19 13  1  0
  4 22  1  0
  5 23  1  0
  5 24  1  0
  6 25  1  0
  7 26  1  0
  7 27  1  0
  8 28  1  0
  8 29  1  0
  9 30  1  0
  9 31  1  0
 10 32  1  0
 12 33  1  0
 14 34  1  0
 17 35  1  0
 18 36  1  0
 21 37  1  0
 21 38  1  0
M  END
>  <Energy>  (1220) 
668.44049086357904

>  <compound_id>  (1220) 
42174

>  <target_id>  (1220) 
1

>  <reference_id>  (1220) 
44

>  <inspiration_ids>  (1220) 
[89, 44]

>  <energy_score>  (1220) 
690.7623240364148

>  <distance_score>  (1220) 
8.69345042823339

>  <path>  (1220) 
/opt/xchem-fragalysis-2/maxwin/BulkDock/SCRATCH/511022/C42174-P44/C42174-P44.minimised.mol

>  <scratch_subdir>  (1220) 
/opt/xchem-fragalysis-2/maxwin/BulkDock/SCRATCH/511022/C42174-P44

>  <fragmenstein_runtime>  (1220) 
11.260693550109863

>  <fragmenstein_outcome>  (1220) 
too moved

>  <fragmenstein_mode>  (1220) 
expansion

>  <fragmenstein_error>  (1220) 


$$$$
C57888-P44
     RDKit          3D

 43 45  0  0  0  0  0  0  0  0999 V2000
    3.3836  -19.8816   34.4694 C   0  0  0  0  0  0  0  0  0  0  0  0
    3.8220  -19.3284   33.2276 O   0  0  0  0  0  0  0  0  0  0  0  0
    4.0483  -17.9882   33.3785 C   0  0  0  0  0  0  0  0  0  0  0  0
    5.1218  -17.4775   34.1141 C   0  0  0  0  0  0  0  0  0  0  0  0
    5.2689  -16.0800   34.2721 C   0  0  0  0  0  0  0  0  0  0  0  0
    4.3902  -15.2008   33.6223 C   0  0  0  0  0  0  0  0  0  0  0  0
    3.4112  -15.7350   32.7939 C   0  0  0  0  0  0  0  0  0  0  0  0
    3.1832  -17.1182   32.7360 C   0  0  0  0  0  0  0  0  0  0  0  0
    2.8318  -14.8680   31.7775 C   0  0  0  0  0  0  0  0  0  0  0  0
    3.1434  -13.5659   31.4750 C   0  0  0  0  0  0  0  0  0  0  0  0
    2.1117  -12.4402   30.9683 C   0  0  0  0  0  0  0  0  0  0  0  0
    1.1119  -12.5237   31.5889 O   0  0  0  0  0  0  0  0  0  0  0  0
    2.3967  -11.0835   29.7783 N   0  0  0  0  0  0  0  0  0  0  0  0
    1.1278   -9.1745   29.3017 S   0  0  0  0  0  0  0  0  0  0  0  0
    0.0326   -9.3682   28.4073 O   0  0  0  0  0  0  0  0  0  0  0  0
    0.7603   -8.4229   30.5129 O   0  0  0  0  0  0  0  0  0  0  0  0
    2.2495   -7.8693   28.5808 N   0  0  0  0  0  0  0  0  0  0  0  0
    2.4298   -7.6406   27.1088 C   0  0  0  0  0  0  0  0  0  0  0  0
    1.3480   -6.7058   26.5007 C   0  0  0  0  0  0  0  0  0  0  0  0
    1.3349   -5.3240   27.0325 N   0  0  0  0  0  0  0  0  0  0  0  0
    2.0859   -5.2498   28.2935 C   0  0  0  0  0  0  0  0  0  0  0  0
    1.7818   -6.4580   29.1930 C   0  0  0  0  0  0  0  0  0  0  0  0
    4.3164  -13.0704   32.4465 C   0  0  0  0  0  0  0  0  0  0  0  0
    4.6016  -13.8455   33.6741 O   0  0  0  0  0  0  0  0  0  0  0  0
    2.7912  -19.1742   35.0606 H   0  0  0  0  0  0  0  0  0  0  0  0
    2.7281  -20.7249   34.2521 H   0  0  0  0  0  0  0  0  0  0  0  0
    4.2460  -20.2484   35.0328 H   0  0  0  0  0  0  0  0  0  0  0  0
    5.8251  -18.1588   34.5850 H   0  0  0  0  0  0  0  0  0  0  0  0
    6.0784  -15.6742   34.8684 H   0  0  0  0  0  0  0  0  0  0  0  0
    2.3532  -17.5060   32.1605 H   0  0  0  0  0  0  0  0  0  0  0  0
    2.4212  -15.4978   30.9881 H   0  0  0  0  0  0  0  0  0  0  0  0
    3.2408  -11.2435   29.3131 H   0  0  0  0  0  0  0  0  0  0  0  0
    2.5883   -8.5802   26.5914 H   0  0  0  0  0  0  0  0  0  0  0  0
    3.4089   -7.1542   26.9871 H   0  0  0  0  0  0  0  0  0  0  0  0
    0.3469   -7.1110   26.6728 H   0  0  0  0  0  0  0  0  0  0  0  0
    1.4936   -6.6480   25.4169 H   0  0  0  0  0  0  0  0  0  0  0  0
    0.3546   -5.1092   27.2649 H   0  0  0  0  0  0  0  0  0  0  0  0
    1.8083   -4.3251   28.8115 H   0  0  0  0  0  0  0  0  0  0  0  0
    3.1597   -5.1822   28.0854 H   0  0  0  0  0  0  0  0  0  0  0  0
    2.2851   -6.3142   30.1533 H   0  0  0  0  0  0  0  0  0  0  0  0
    0.6964   -6.4712   29.3481 H   0  0  0  0  0  0  0  0  0  0  0  0
    4.1853  -12.0454   32.7722 H   0  0  0  0  0  0  0  0  0  0  0  0
    5.2741  -13.0143   31.9187 H   0  0  0  0  0  0  0  0  0  0  0  0
  1  2  1  0
  2  3  1  0
  3  4  2  0
  4  5  1  0
  5  6  2  0
  6  7  1  0
  7  8  2  0
  7  9  1  0
  9 10  2  0
 10 11  1  0
 11 12  2  0
 11 13  1  0
 13 14  1  0
 14 15  2  0
 14 16  2  0
 14 17  1  0
 17 18  1  0
 18 19  1  0
 19 20  1  0
 20 21  1  0
 21 22  1  0
 10 23  1  0
 23 24  1  0
  8  3  1  0
 22 17  1  0
 24  6  1  0
  1 25  1  0
  1 26  1  0
  1 27  1  0
  4 28  1  0
  5 29  1  0
  8 30  1  0
  9 31  1  0
 13 32  1  0
 18 33  1  0
 18 34  1  0
 19 35  1  0
 19 36  1  0
 20 37  1  0
 21 38  1  0
 21 39  1  0
 22 40  1  0
 22 41  1  0
 23 42  1  0
 23 43  1  0
M  END
>  <Energy>  (1221) 
119.56577511983878

>  <compound_id>  (1221) 
57888

>  <target_id>  (1221) 
1

>  <reference_id>  (1221) 
44

>  <inspiration_ids>  (1221) 
[89, 44]

>  <energy_score>  (1221) 
193.66490274189084

>  <distance_score>  (1221) 
8.265854634740375

>  <path>  (1221) 
/opt/xchem-fragalysis-2/maxwin/BulkDock/SCRATCH/511022/C57888-P44/C57888-P44.minimised.mol

>  <scratch_subdir>  (1221) 
/opt/xchem-fragalysis-2/maxwin/BulkDock/SCRATCH/511022/C57888-P44

>  <fragmenstein_runtime>  (1221) 
14.85593295097351

>  <fragmenstein_outcome>  (1221) 
too moved

>  <fragmenstein_mode>  (1221) 
expansion

>  <fragmenstein_error>  (1221) 


$$$$
C57872-P44
     RDKit          3D

 37 39  0  0  0  0  0  0  0  0999 V2000
    2.9801  -12.5643   30.1150 O   0  0  0  0  0  0  0  0  0  0  0  0
    2.2924  -13.0906   30.9375 C   0  0  0  0  0  0  0  0  0  0  0  0
    0.6545  -12.4031   31.3983 N   0  0  0  0  0  0  0  0  0  0  0  0
   -0.6276  -10.5516   30.5064 S   0  0  0  0  0  0  0  0  0  0  0  0
   -1.7804  -11.1434   29.8488 O   0  0  0  0  0  0  0  0  0  0  0  0
    0.0593   -9.7167   29.4464 O   0  0  0  0  0  0  0  0  0  0  0  0
   -1.0179   -8.9087   31.7862 C   0  0  0  0  0  0  0  0  0  0  0  0
   -1.6270   -7.6872   30.9478 C   0  0  0  0  0  0  0  0  0  0  0  0
   -1.0458   -6.3579   31.4123 C   0  0  0  0  0  0  0  0  0  0  0  0
   -0.3263   -6.7349   32.6026 N   0  0  0  0  0  0  0  0  0  0  0  0
    0.1676   -8.0888   32.2964 C   0  0  0  0  0  0  0  0  0  0  0  0
    2.8787  -14.8676   31.7275 C   0  0  0  0  0  0  0  0  0  0  0  0
    3.3467  -16.2868   32.2791 C   0  0  0  0  0  0  0  0  0  0  0  0
    3.9157  -18.0335   31.8227 C   0  0  0  0  0  0  0  0  0  0  0  0
    4.3563  -19.0993   31.1201 C   0  0  0  0  0  0  0  0  0  0  0  0
    5.0132  -19.9528   29.4339 C   0  0  0  0  0  0  0  0  0  0  0  0
    4.4540  -19.3634   28.0790 F   0  0  0  0  0  0  0  0  0  0  0  0
    5.3260  -22.0891   29.6240 C   0  0  0  0  0  0  0  0  0  0  0  0
    5.4243  -19.8796   29.6004 C   0  0  0  0  0  0  0  0  0  0  0  0
    4.4946  -18.3698   30.6154 C   0  0  0  0  0  0  0  0  0  0  0  0
    3.7583  -16.8721   30.1781 O   0  0  0  0  0  0  0  0  0  0  0  0
    2.5848  -15.9430   30.5359 C   0  0  0  0  0  0  0  0  0  0  0  0
    0.1700  -13.0990   32.0973 H   0  0  0  0  0  0  0  0  0  0  0  0
   -1.7579   -9.1974   32.5205 H   0  0  0  0  0  0  0  0  0  0  0  0
   -2.7075   -7.6347   31.1302 H   0  0  0  0  0  0  0  0  0  0  0  0
   -1.3962   -7.7606   29.8824 H   0  0  0  0  0  0  0  0  0  0  0  0
   -0.3676   -5.9463   30.6557 H   0  0  0  0  0  0  0  0  0  0  0  0
   -1.8208   -5.6145   31.6201 H   0  0  0  0  0  0  0  0  0  0  0  0
    0.4417   -6.0902   32.7841 H   0  0  0  0  0  0  0  0  0  0  0  0
    0.5710   -8.4457   33.2345 H   0  0  0  0  0  0  0  0  0  0  0  0
    0.9406   -7.9781   31.5344 H   0  0  0  0  0  0  0  0  0  0  0  0
    3.5512  -16.2796   33.3448 H   0  0  0  0  0  0  0  0  0  0  0  0
    4.4259  -19.8012   32.0665 H   0  0  0  0  0  0  0  0  0  0  0  0
    5.0961  -22.8568   30.4956 H   0  0  0  0  0  0  0  0  0  0  0  0
    6.6822  -19.3688   29.9122 H   0  0  0  0  0  0  0  0  0  0  0  0
    2.3499  -15.4247   29.6022 H   0  0  0  0  0  0  0  0  0  0  0  0
    1.7052  -16.5528   30.8115 H   0  0  0  0  0  0  0  0  0  0  0  0
  1  2  2  0
  2  3  1  0
  3  4  1  0
  4  5  2  0
  4  6  2  0
  4  7  1  0
  7  8  1  0
  8  9  1  0
  9 10  1  0
 10 11  1  0
  2 12  1  0
 12 13  2  0
 13 14  1  0
 14 15  2  0
 15 16  1  0
 16 17  1  0
 16 18  2  0
 18 19  1  0
 19 20  2  0
 20 21  1  0
 21 22  1  0
 11  7  1  0
 22 12  1  0
 20 14  1  0
  3 23  1  0
  7 24  1  0
  8 25  1  0
  8 26  1  0
  9 27  1  0
  9 28  1  0
 10 29  1  0
 11 30  1  0
 11 31  1  0
 13 32  1  0
 15 33  1  0
 18 34  1  0
 19 35  1  0
 22 36  1  0
 22 37  1  0
M  END
>  <Energy>  (1222) 
2151.5111143111612

>  <compound_id>  (1222) 
57872

>  <target_id>  (1222) 
1

>  <reference_id>  (1222) 
44

>  <inspiration_ids>  (1222) 
[89, 44]

>  <energy_score>  (1222) 
2220.534376874752

>  <distance_score>  (1222) 
7.20603716296551

>  <path>  (1222) 
/opt/xchem-fragalysis-2/maxwin/BulkDock/SCRATCH/511022/C57872-P44/C57872-P44.minimised.mol

>  <scratch_subdir>  (1222) 
/opt/xchem-fragalysis-2/maxwin/BulkDock/SCRATCH/511022/C57872-P44

>  <fragmenstein_runtime>  (1222) 
13.529602527618408

>  <fragmenstein_outcome>  (1222) 
too moved

>  <fragmenstein_mode>  (1222) 
expansion

>  <fragmenstein_error>  (1222) 


$$$$
C57889-P44
     RDKit          3D

 41 43  0  0  0  0  0  0  0  0999 V2000
   -0.9393  -11.1143   30.5920 C   0  0  0  0  0  0  0  0  0  0  0  0
    0.7014  -11.8551   30.1640 N   0  0  0  0  0  0  0  0  0  0  0  0
    0.6285   -9.8433   29.4116 C   0  0  0  0  0  0  0  0  0  0  0  0
   -0.0694   -8.4595   30.5324 C   0  0  0  0  0  0  0  0  0  0  0  0
   -0.6219   -7.1708   29.9257 C   0  0  0  0  0  0  0  0  0  0  0  0
   -1.1328   -6.3779   31.1064 C   0  0  0  0  0  0  0  0  0  0  0  0
   -0.0118   -6.4422   32.0116 N   0  0  0  0  0  0  0  0  0  0  0  0
    0.6611   -7.7278   31.7113 C   0  0  0  0  0  0  0  0  0  0  0  0
    2.4021  -13.2085   30.9744 S   0  0  0  0  0  0  0  0  0  0  0  0
    3.0319  -12.8427   29.6843 O   0  0  0  0  0  0  0  0  0  0  0  0
    3.3245  -12.6219   31.9309 O   0  0  0  0  0  0  0  0  0  0  0  0
    2.6498  -15.4949   31.4741 C   0  0  0  0  0  0  0  0  0  0  0  0
    1.9648  -16.9321   31.4752 C   0  0  0  0  0  0  0  0  0  0  0  0
    2.6221  -18.8103   31.6818 C   0  0  0  0  0  0  0  0  0  0  0  0
    2.2271  -19.9810   30.2280 C   0  0  0  0  0  0  0  0  0  0  0  0
    2.0020  -20.4676   28.6200 C   0  0  0  0  0  0  0  0  0  0  0  0
    3.7804  -19.6575   28.1983 C   0  0  0  0  0  0  0  0  0  0  0  0
    4.4794  -18.9943   29.7910 C   0  0  0  0  0  0  0  0  0  0  0  0
    3.9373  -18.5103   31.4099 C   0  0  0  0  0  0  0  0  0  0  0  0
    4.4401  -17.4559   32.2275 O   0  0  0  0  0  0  0  0  0  0  0  0
    3.5964  -16.0973   32.5932 C   0  0  0  0  0  0  0  0  0  0  0  0
   -1.1276  -10.2473   29.9673 H   0  0  0  0  0  0  0  0  0  0  0  0
   -1.7411  -11.4055   29.8825 H   0  0  0  0  0  0  0  0  0  0  0  0
   -1.0498  -10.4952   31.4581 H   0  0  0  0  0  0  0  0  0  0  0  0
    0.0031   -9.7899   28.5164 H   0  0  0  0  0  0  0  0  0  0  0  0
    1.6084   -9.3497   29.2791 H   0  0  0  0  0  0  0  0  0  0  0  0
   -0.9583   -8.8284   31.0309 H   0  0  0  0  0  0  0  0  0  0  0  0
   -1.4329   -7.3488   29.2252 H   0  0  0  0  0  0  0  0  0  0  0  0
    0.1979   -6.5524   29.5554 H   0  0  0  0  0  0  0  0  0  0  0  0
   -1.3971   -5.3506   30.8470 H   0  0  0  0  0  0  0  0  0  0  0  0
   -1.9734   -6.9033   31.5572 H   0  0  0  0  0  0  0  0  0  0  0  0
   -0.3249   -6.4236   32.9834 H   0  0  0  0  0  0  0  0  0  0  0  0
    0.6254   -8.2976   32.6377 H   0  0  0  0  0  0  0  0  0  0  0  0
    1.6606   -7.4043   31.4649 H   0  0  0  0  0  0  0  0  0  0  0  0
    0.9459  -17.0215   31.0924 H   0  0  0  0  0  0  0  0  0  0  0  0
    2.2301  -21.2584   30.3023 H   0  0  0  0  0  0  0  0  0  0  0  0
    1.5315  -21.4225   28.2894 H   0  0  0  0  0  0  0  0  0  0  0  0
    4.3184  -19.7179   27.2552 H   0  0  0  0  0  0  0  0  0  0  0  0
    5.5382  -19.1904   29.9287 H   0  0  0  0  0  0  0  0  0  0  0  0
    2.9607  -16.4816   33.3941 H   0  0  0  0  0  0  0  0  0  0  0  0
    4.2301  -15.3985   33.1445 H   0  0  0  0  0  0  0  0  0  0  0  0
  1  2  1  0
  2  3  1  0
  3  4  1  0
  4  5  1  0
  5  6  1  0
  6  7  1  0
  7  8  1  0
  2  9  1  0
  9 10  2  0
  9 11  2  0
  9 12  1  0
 12 13  2  0
 13 14  1  0
 14 15  2  0
 15 16  1  0
 16 17  2  0
 17 18  1  0
 18 19  2  0
 19 20  1  0
 20 21  1  0
  8  4  1  0
 21 12  1  0
 19 14  1  0
  1 22  1  0
  1 23  1  0
  1 24  1  0
  3 25  1  0
  3 26  1  0
  4 27  1  0
  5 28  1  0
  5 29  1  0
  6 30  1  0
  6 31  1  0
  7 32  1  0
  8 33  1  0
  8 34  1  0
 13 35  1  0
 15 36  1  0
 16 37  1  0
 17 38  1  0
 18 39  1  0
 21 40  1  0
 21 41  1  0
M  END
>  <Energy>  (1223) 
1207.0902083274846

>  <compound_id>  (1223) 
57889

>  <target_id>  (1223) 
1

>  <reference_id>  (1223) 
44

>  <inspiration_ids>  (1223) 
[89, 44]

>  <energy_score>  (1223) 
1205.0049410977551

>  <distance_score>  (1223) 
6.8223472661341775

>  <path>  (1223) 
/opt/xchem-fragalysis-2/maxwin/BulkDock/SCRATCH/511022/C57889-P44/C57889-P44.minimised.mol

>  <scratch_subdir>  (1223) 
/opt/xchem-fragalysis-2/maxwin/BulkDock/SCRATCH/511022/C57889-P44

>  <fragmenstein_runtime>  (1223) 
11.545820474624634

>  <fragmenstein_outcome>  (1223) 
too moved

>  <fragmenstein_mode>  (1223) 
expansion

>  <fragmenstein_error>  (1223) 


$$$$
C42175-P44
     RDKit          3D

 41 43  0  0  0  0  0  0  0  0999 V2000
    1.4657   -9.1181   29.1172 C   0  0  0  0  0  0  0  0  0  0  0  0
    1.1789  -10.9431   29.3552 N   0  0  0  0  0  0  0  0  0  0  0  0
   -0.4968  -10.0804   30.0663 C   0  0  0  0  0  0  0  0  0  0  0  0
   -0.6708   -8.6207   30.9852 C   0  0  0  0  0  0  0  0  0  0  0  0
   -1.2332   -7.3798   30.2302 C   0  0  0  0  0  0  0  0  0  0  0  0
   -0.3825   -6.1827   30.6140 C   0  0  0  0  0  0  0  0  0  0  0  0
   -0.0041   -6.5424   32.0229 C   0  0  0  0  0  0  0  0  0  0  0  0
    0.2859   -7.9777   31.9167 N   0  0  0  0  0  0  0  0  0  0  0  0
    2.2295  -12.4880   30.7955 S   0  0  0  0  0  0  0  0  0  0  0  0
    3.1936  -11.9972   31.7303 O   0  0  0  0  0  0  0  0  0  0  0  0
    0.9641  -12.5292   31.4937 O   0  0  0  0  0  0  0  0  0  0  0  0
    2.6350  -14.4909   31.5965 C   0  0  0  0  0  0  0  0  0  0  0  0
    2.8097  -15.7735   31.1150 C   0  0  0  0  0  0  0  0  0  0  0  0
    2.8832  -16.9630   32.1021 C   0  0  0  0  0  0  0  0  0  0  0  0
    3.8178  -17.9978   32.2597 C   0  0  0  0  0  0  0  0  0  0  0  0
    3.7970  -18.8654   33.3669 C   0  0  0  0  0  0  0  0  0  0  0  0
    5.1587  -19.7931   33.8261 Cl  0  0  0  0  0  0  0  0  0  0  0  0
    2.7224  -18.8945   34.2192 C   0  0  0  0  0  0  0  0  0  0  0  0
    1.7159  -17.9793   34.0079 C   0  0  0  0  0  0  0  0  0  0  0  0
    1.8709  -17.0038   33.0285 C   0  0  0  0  0  0  0  0  0  0  0  0
    1.0636  -15.9372   33.1254 O   0  0  0  0  0  0  0  0  0  0  0  0
    1.8662  -14.7457   32.9399 C   0  0  0  0  0  0  0  0  0  0  0  0
    0.5700   -8.9101   28.5327 H   0  0  0  0  0  0  0  0  0  0  0  0
    1.3681   -8.5057   29.9814 H   0  0  0  0  0  0  0  0  0  0  0  0
    2.1856   -8.8288   28.3690 H   0  0  0  0  0  0  0  0  0  0  0  0
   -1.0077   -9.8941   29.1255 H   0  0  0  0  0  0  0  0  0  0  0  0
   -0.9880  -10.8764   30.6017 H   0  0  0  0  0  0  0  0  0  0  0  0
   -1.5036   -8.9205   31.6401 H   0  0  0  0  0  0  0  0  0  0  0  0
   -1.3018   -7.5368   29.1653 H   0  0  0  0  0  0  0  0  0  0  0  0
   -2.2502   -7.1668   30.5896 H   0  0  0  0  0  0  0  0  0  0  0  0
    0.5130   -6.1122   29.9882 H   0  0  0  0  0  0  0  0  0  0  0  0
   -0.9317   -5.2394   30.5469 H   0  0  0  0  0  0  0  0  0  0  0  0
    0.8678   -5.9857   32.3768 H   0  0  0  0  0  0  0  0  0  0  0  0
   -0.8372   -6.3725   32.7147 H   0  0  0  0  0  0  0  0  0  0  0  0
    0.1712   -8.3967   32.8439 H   0  0  0  0  0  0  0  0  0  0  0  0
    2.7833  -15.9893   30.0664 H   0  0  0  0  0  0  0  0  0  0  0  0
    4.5956  -18.1772   31.5459 H   0  0  0  0  0  0  0  0  0  0  0  0
    2.6774  -19.5731   35.0663 H   0  0  0  0  0  0  0  0  0  0  0  0
    0.8782  -17.9160   34.6992 H   0  0  0  0  0  0  0  0  0  0  0  0
    1.0169  -14.0871   33.0403 H   0  0  0  0  0  0  0  0  0  0  0  0
    2.6380  -14.6263   33.6883 H   0  0  0  0  0  0  0  0  0  0  0  0
  1  2  1  0
  2  3  1  0
  3  4  1  0
  4  5  1  0
  5  6  1  0
  6  7  1  0
  7  8  1  0
  2  9  1  0
  9 10  2  0
  9 11  2  0
  9 12  1  0
 12 13  2  0
 13 14  1  0
 14 15  2  0
 15 16  1  0
 16 17  1  0
 16 18  2  0
 18 19  1  0
 19 20  2  0
 20 21  1  0
 21 22  1  0
  8  4  1  0
 22 12  1  0
 20 14  1  0
  1 23  1  0
  1 24  1  0
  1 25  1  0
  3 26  1  0
  3 27  1  0
  4 28  1  0
  5 29  1  0
  5 30  1  0
  6 31  1  0
  6 32  1  0
  7 33  1  0
  7 34  1  0
  8 35  1  0
 13 36  1  0
 15 37  1  0
 18 38  1  0
 19 39  1  0
 22 40  1  0
 22 41  1  0
M  END
>  <Energy>  (1224) 
450.82366701981402

>  <compound_id>  (1224) 
42175

>  <target_id>  (1224) 
1

>  <reference_id>  (1224) 
44

>  <inspiration_ids>  (1224) 
[89, 44]

>  <energy_score>  (1224) 
440.08503108791626

>  <distance_score>  (1224) 
8.517151767207563

>  <path>  (1224) 
/opt/xchem-fragalysis-2/maxwin/BulkDock/SCRATCH/511022/C42175-P44/C42175-P44.minimised.mol

>  <scratch_subdir>  (1224) 
/opt/xchem-fragalysis-2/maxwin/BulkDock/SCRATCH/511022/C42175-P44

>  <fragmenstein_runtime>  (1224) 
14.250931739807129

>  <fragmenstein_outcome>  (1224) 
too moved

>  <fragmenstein_mode>  (1224) 
expansion

>  <fragmenstein_error>  (1224) 


$$$$
C57890-P44
     RDKit          3D

 44 46  0  0  0  0  0  0  0  0999 V2000
    3.9574  -18.5040   33.5275 C   0  0  0  0  0  0  0  0  0  0  0  0
    4.0177  -17.1273   33.8914 O   0  0  0  0  0  0  0  0  0  0  0  0
    3.4624  -16.2372   33.0118 C   0  0  0  0  0  0  0  0  0  0  0  0
    2.7245  -16.5521   31.9007 C   0  0  0  0  0  0  0  0  0  0  0  0
    2.6046  -15.6149   30.8299 C   0  0  0  0  0  0  0  0  0  0  0  0
    2.8024  -14.1866   30.9927 C   0  0  0  0  0  0  0  0  0  0  0  0
    3.4486  -13.9961   32.1972 C   0  0  0  0  0  0  0  0  0  0  0  0
    3.7646  -14.9062   33.2147 C   0  0  0  0  0  0  0  0  0  0  0  0
    4.0171  -12.7927   32.1215 O   0  0  0  0  0  0  0  0  0  0  0  0
    2.9144  -11.9801   31.5346 C   0  0  0  0  0  0  0  0  0  0  0  0
    2.5987  -11.3081   29.9556 C   0  0  0  0  0  0  0  0  0  0  0  0
    2.0073   -9.3638   29.3115 C   0  0  0  0  0  0  0  0  0  0  0  0
    0.8274   -9.3586   29.0756 O   0  0  0  0  0  0  0  0  0  0  0  0
    3.0293   -7.8503   28.9442 N   0  0  0  0  0  0  0  0  0  0  0  0
    2.6528   -6.4994   28.4718 C   0  0  0  0  0  0  0  0  0  0  0  0
    3.0290   -6.2646   27.0152 C   0  0  0  0  0  0  0  0  0  0  0  0
    1.7124   -5.5855   29.3373 C   0  0  0  0  0  0  0  0  0  0  0  0
    1.4797   -4.1743   28.7770 C   0  0  0  0  0  0  0  0  0  0  0  0
    0.6450   -3.2010   29.6480 C   0  0  0  0  0  0  0  0  0  0  0  0
    1.5102   -2.0978   29.1717 N   0  0  0  0  0  0  0  0  0  0  0  0
    2.5735   -3.0907   28.8993 C   0  0  0  0  0  0  0  0  0  0  0  0
    2.9366  -12.6893   29.8041 C   0  0  0  0  0  0  0  0  0  0  0  0
    2.9328  -18.8794   33.6008 H   0  0  0  0  0  0  0  0  0  0  0  0
    4.3704  -18.6735   32.5285 H   0  0  0  0  0  0  0  0  0  0  0  0
    4.5702  -19.0648   34.2394 H   0  0  0  0  0  0  0  0  0  0  0  0
    2.2770  -17.5267   31.8673 H   0  0  0  0  0  0  0  0  0  0  0  0
    2.2116  -15.9135   29.8741 H   0  0  0  0  0  0  0  0  0  0  0  0
    4.3902  -14.5886   34.0412 H   0  0  0  0  0  0  0  0  0  0  0  0
    1.8814  -12.3949   31.6236 H   0  0  0  0  0  0  0  0  0  0  0  0
    3.2960  -11.2899   32.2564 H   0  0  0  0  0  0  0  0  0  0  0  0
    4.0098   -8.0023   29.3014 H   0  0  0  0  0  0  0  0  0  0  0  0
    3.5685   -6.0233   28.8743 H   0  0  0  0  0  0  0  0  0  0  0  0
    3.0223   -7.2056   26.4596 H   0  0  0  0  0  0  0  0  0  0  0  0
    4.0645   -5.9050   26.9341 H   0  0  0  0  0  0  0  0  0  0  0  0
    2.4200   -5.5109   26.5226 H   0  0  0  0  0  0  0  0  0  0  0  0
    0.7603   -6.0791   29.5475 H   0  0  0  0  0  0  0  0  0  0  0  0
    2.1630   -5.4958   30.3377 H   0  0  0  0  0  0  0  0  0  0  0  0
    1.0752   -4.2058   27.7634 H   0  0  0  0  0  0  0  0  0  0  0  0
    0.7150   -3.3701   30.7290 H   0  0  0  0  0  0  0  0  0  0  0  0
   -0.4102   -3.1090   29.3745 H   0  0  0  0  0  0  0  0  0  0  0  0
    1.1406   -1.6493   28.3284 H   0  0  0  0  0  0  0  0  0  0  0  0
    3.2656   -3.2271   29.7386 H   0  0  0  0  0  0  0  0  0  0  0  0
    3.1555   -2.9029   27.9923 H   0  0  0  0  0  0  0  0  0  0  0  0
    3.1935  -13.0980   28.8241 H   0  0  0  0  0  0  0  0  0  0  0  0
  1  2  1  0
  2  3  1  0
  3  4  2  0
  4  5  1  0
  5  6  2  0
  6  7  1  0
  7  8  2  0
  7  9  1  0
  9 10  1  0
 10 11  1  0
 11 12  1  0
 12 13  2  0
 12 14  1  0
 14 15  1  0
 15 16  1  0
 15 17  1  0
 17 18  1  0
 18 19  1  0
 19 20  1  0
 20 21  1  0
 11 22  2  0
  8  3  1  0
 21 18  1  0
 22  6  1  0
  1 23  1  0
  1 24  1  0
  1 25  1  0
  4 26  1  0
  5 27  1  0
  8 28  1  0
 10 29  1  0
 10 30  1  0
 14 31  1  0
 15 32  1  0
 16 33  1  0
 16 34  1  0
 16 35  1  0
 17 36  1  0
 17 37  1  0
 18 38  1  0
 19 39  1  0
 19 40  1  0
 20 41  1  0
 21 42  1  0
 21 43  1  0
 22 44  1  0
M  END
>  <Energy>  (1225) 
500.71834844483521

>  <compound_id>  (1225) 
57890

>  <target_id>  (1225) 
1

>  <reference_id>  (1225) 
44

>  <inspiration_ids>  (1225) 
[89, 44]

>  <energy_score>  (1225) 
438.91206073226704

>  <distance_score>  (1225) 
7.915743829721021

>  <path>  (1225) 
/opt/xchem-fragalysis-2/maxwin/BulkDock/SCRATCH/511022/C57890-P44/C57890-P44.minimised.mol

>  <scratch_subdir>  (1225) 
/opt/xchem-fragalysis-2/maxwin/BulkDock/SCRATCH/511022/C57890-P44

>  <fragmenstein_runtime>  (1225) 
17.958481311798096

>  <fragmenstein_outcome>  (1225) 
too moved

>  <fragmenstein_mode>  (1225) 
expansion

>  <fragmenstein_error>  (1225) 


$$$$
C57891-P44
     RDKit          3D

 40 42  0  0  0  0  0  0  0  0999 V2000
   -0.9226   -7.1280   30.1345 C   0  0  0  0  0  0  0  0  0  0  0  0
    0.5513   -7.0709   30.4858 C   0  0  0  0  0  0  0  0  0  0  0  0
    1.4722   -5.9511   29.9037 C   0  0  0  0  0  0  0  0  0  0  0  0
    0.9757   -4.5099   30.2121 C   0  0  0  0  0  0  0  0  0  0  0  0
    1.9397   -3.3768   29.7439 C   0  0  0  0  0  0  0  0  0  0  0  0
    1.0996   -3.2346   28.5384 N   0  0  0  0  0  0  0  0  0  0  0  0
   -0.0468   -3.7453   29.3182 C   0  0  0  0  0  0  0  0  0  0  0  0
    1.0677   -8.4351   30.7614 N   0  0  0  0  0  0  0  0  0  0  0  0
    1.9737   -9.6189   29.7323 C   0  0  0  0  0  0  0  0  0  0  0  0
    2.1558   -9.3488   28.5898 O   0  0  0  0  0  0  0  0  0  0  0  0
    2.6533  -11.5526   30.4987 C   0  0  0  0  0  0  0  0  0  0  0  0
    2.3120  -12.9020   30.9262 C   0  0  0  0  0  0  0  0  0  0  0  0
    2.9018  -14.3775   31.8556 C   0  0  0  0  0  0  0  0  0  0  0  0
    2.6728  -15.8119   31.7389 C   0  0  0  0  0  0  0  0  0  0  0  0
    3.2970  -16.8053   32.5705 C   0  0  0  0  0  0  0  0  0  0  0  0
    2.9662  -18.4904   32.5532 Cl  0  0  0  0  0  0  0  0  0  0  0  0
    4.2670  -16.4544   33.4862 C   0  0  0  0  0  0  0  0  0  0  0  0
    4.4296  -15.1131   33.7438 C   0  0  0  0  0  0  0  0  0  0  0  0
    3.7580  -14.1688   32.9313 C   0  0  0  0  0  0  0  0  0  0  0  0
    4.0982  -12.9155   33.1989 O   0  0  0  0  0  0  0  0  0  0  0  0
    3.7892  -12.0208   32.1051 C   0  0  0  0  0  0  0  0  0  0  0  0
   -1.3512   -6.1504   29.9124 H   0  0  0  0  0  0  0  0  0  0  0  0
   -1.0986   -7.8130   29.3091 H   0  0  0  0  0  0  0  0  0  0  0  0
   -1.4883   -7.5297   30.9849 H   0  0  0  0  0  0  0  0  0  0  0  0
    0.4901   -6.7201   31.5301 H   0  0  0  0  0  0  0  0  0  0  0  0
    2.4388   -6.0514   30.4146 H   0  0  0  0  0  0  0  0  0  0  0  0
    1.7199   -6.0863   28.8524 H   0  0  0  0  0  0  0  0  0  0  0  0
    0.7423   -4.4327   31.2829 H   0  0  0  0  0  0  0  0  0  0  0  0
    2.9753   -3.6680   29.5478 H   0  0  0  0  0  0  0  0  0  0  0  0
    1.9382   -2.4913   30.3914 H   0  0  0  0  0  0  0  0  0  0  0  0
    0.9768   -2.2820   28.1898 H   0  0  0  0  0  0  0  0  0  0  0  0
   -0.5968   -2.9599   29.8527 H   0  0  0  0  0  0  0  0  0  0  0  0
   -0.7661   -4.3323   28.7539 H   0  0  0  0  0  0  0  0  0  0  0  0
    1.0720   -8.7615   31.6877 H   0  0  0  0  0  0  0  0  0  0  0  0
    1.3311  -12.7767   31.3383 H   0  0  0  0  0  0  0  0  0  0  0  0
    2.0626  -16.2115   30.9379 H   0  0  0  0  0  0  0  0  0  0  0  0
    4.8224  -17.2026   34.0441 H   0  0  0  0  0  0  0  0  0  0  0  0
    5.1286  -14.7721   34.5021 H   0  0  0  0  0  0  0  0  0  0  0  0
    4.6721  -12.5514   31.6318 H   0  0  0  0  0  0  0  0  0  0  0  0
    4.1194  -11.0976   32.6220 H   0  0  0  0  0  0  0  0  0  0  0  0
  1  2  1  0
  2  3  1  0
  3  4  1  0
  4  5  1  0
  5  6  1  0
  6  7  1  0
  2  8  1  0
  8  9  1  0
  9 10  2  0
  9 11  1  0
 11 12  2  0
 12 13  1  0
 13 14  2  0
 14 15  1  0
 15 16  1  0
 15 17  2  0
 17 18  1  0
 18 19  2  0
 19 20  1  0
 20 21  1  0
  7  4  1  0
 21 11  1  0
 19 13  1  0
  1 22  1  0
  1 23  1  0
  1 24  1  0
  2 25  1  0
  3 26  1  0
  3 27  1  0
  4 28  1  0
  5 29  1  0
  5 30  1  0
  6 31  1  0
  7 32  1  0
  7 33  1  0
  8 34  1  0
 12 35  1  0
 14 36  1  0
 17 37  1  0
 18 38  1  0
 21 39  1  0
 21 40  1  0
M  END
>  <Energy>  (1226) 
509.60972875233153

>  <compound_id>  (1226) 
57891

>  <target_id>  (1226) 
1

>  <reference_id>  (1226) 
44

>  <inspiration_ids>  (1226) 
[89, 44]

>  <energy_score>  (1226) 
471.4328780433556

>  <distance_score>  (1226) 
7.766555257596802

>  <path>  (1226) 
/opt/xchem-fragalysis-2/maxwin/BulkDock/SCRATCH/511022/C57891-P44/C57891-P44.minimised.mol

>  <scratch_subdir>  (1226) 
/opt/xchem-fragalysis-2/maxwin/BulkDock/SCRATCH/511022/C57891-P44

>  <fragmenstein_runtime>  (1226) 
20.930872201919556

>  <fragmenstein_outcome>  (1226) 
too moved

>  <fragmenstein_mode>  (1226) 
expansion

>  <fragmenstein_error>  (1226) 


$$$$
C57892-P44
     RDKit          3D

 44 46  0  0  0  0  0  0  0  0999 V2000
    5.8538  -15.7557   35.5606 C   0  0  0  0  0  0  0  0  0  0  0  0
    6.0762  -15.3139   34.2189 O   0  0  0  0  0  0  0  0  0  0  0  0
    6.4925  -14.0074   34.2569 C   0  0  0  0  0  0  0  0  0  0  0  0
    7.8417  -13.7116   34.1399 C   0  0  0  0  0  0  0  0  0  0  0  0
    8.2867  -12.4046   34.2840 C   0  0  0  0  0  0  0  0  0  0  0  0
    7.3721  -11.3773   34.4939 C   0  0  0  0  0  0  0  0  0  0  0  0
    6.0162  -11.6498   34.6221 C   0  0  0  0  0  0  0  0  0  0  0  0
    5.5764  -12.9744   34.4504 C   0  0  0  0  0  0  0  0  0  0  0  0
    5.1413  -10.5291   34.9888 C   0  0  0  0  0  0  0  0  0  0  0  0
    5.5491   -9.2483   34.8501 C   0  0  0  0  0  0  0  0  0  0  0  0
    4.4628   -8.1401   35.0026 C   0  0  0  0  0  0  0  0  0  0  0  0
    3.3550   -8.5547   35.2045 O   0  0  0  0  0  0  0  0  0  0  0  0
    4.9393   -6.7908   34.7831 N   0  0  0  0  0  0  0  0  0  0  0  0
    4.2078   -5.4871   34.7332 C   0  0  0  0  0  0  0  0  0  0  0  0
    3.3148   -5.3588   35.9669 C   0  0  0  0  0  0  0  0  0  0  0  0
    3.4214   -5.2488   33.3969 C   0  0  0  0  0  0  0  0  0  0  0  0
    2.6628   -3.9154   33.2910 C   0  0  0  0  0  0  0  0  0  0  0  0
    1.9360   -3.6690   31.9395 C   0  0  0  0  0  0  0  0  0  0  0  0
    2.3110   -2.2425   32.0338 N   0  0  0  0  0  0  0  0  0  0  0  0
    3.4307   -2.6212   32.9251 C   0  0  0  0  0  0  0  0  0  0  0  0
    6.9620   -9.0166   34.4005 C   0  0  0  0  0  0  0  0  0  0  0  0
    7.8855  -10.1149   34.5819 O   0  0  0  0  0  0  0  0  0  0  0  0
    6.7587  -15.6585   36.1719 H   0  0  0  0  0  0  0  0  0  0  0  0
    5.0414  -15.2007   36.0380 H   0  0  0  0  0  0  0  0  0  0  0  0
    5.5829  -16.8141   35.5229 H   0  0  0  0  0  0  0  0  0  0  0  0
    8.5845  -14.4623   33.9579 H   0  0  0  0  0  0  0  0  0  0  0  0
    9.3473  -12.1795   34.2065 H   0  0  0  0  0  0  0  0  0  0  0  0
    4.5273  -13.2288   34.4707 H   0  0  0  0  0  0  0  0  0  0  0  0
    4.1568  -10.7487   35.3695 H   0  0  0  0  0  0  0  0  0  0  0  0
    5.9467   -6.8020   34.7288 H   0  0  0  0  0  0  0  0  0  0  0  0
    4.9903   -4.7216   34.8016 H   0  0  0  0  0  0  0  0  0  0  0  0
    3.8710   -5.6082   36.8776 H   0  0  0  0  0  0  0  0  0  0  0  0
    2.4542   -6.0332   35.9078 H   0  0  0  0  0  0  0  0  0  0  0  0
    2.9407   -4.3375   36.0840 H   0  0  0  0  0  0  0  0  0  0  0  0
    4.1391   -5.3111   32.5730 H   0  0  0  0  0  0  0  0  0  0  0  0
    2.7112   -6.0744   33.2619 H   0  0  0  0  0  0  0  0  0  0  0  0
    1.9693   -3.7721   34.1312 H   0  0  0  0  0  0  0  0  0  0  0  0
    2.3807   -4.1753   31.0744 H   0  0  0  0  0  0  0  0  0  0  0  0
    0.8592   -3.8624   31.9410 H   0  0  0  0  0  0  0  0  0  0  0  0
    1.6028   -1.6707   32.4960 H   0  0  0  0  0  0  0  0  0  0  0  0
    3.6105   -1.9309   33.7543 H   0  0  0  0  0  0  0  0  0  0  0  0
    4.3745   -2.7804   32.3906 H   0  0  0  0  0  0  0  0  0  0  0  0
    6.9898   -8.7299   33.3444 H   0  0  0  0  0  0  0  0  0  0  0  0
    7.3975   -8.1946   34.9771 H   0  0  0  0  0  0  0  0  0  0  0  0
  1  2  1  0
  2  3  1  0
  3  4  2  0
  4  5  1  0
  5  6  2  0
  6  7  1  0
  7  8  2  0
  7  9  1  0
  9 10  2  0
 10 11  1  0
 11 12  2  0
 11 13  1  0
 13 14  1  0
 14 15  1  0
 14 16  1  0
 16 17  1  0
 17 18  1  0
 18 19  1  0
 19 20  1  0
 10 21  1  0
 21 22  1  0
  8  3  1  0
 20 17  1  0
 22  6  1  0
  1 23  1  0
  1 24  1  0
  1 25  1  0
  4 26  1  0
  5 27  1  0
  8 28  1  0
  9 29  1  0
 13 30  1  0
 14 31  1  0
 15 32  1  0
 15 33  1  0
 15 34  1  0
 16 35  1  0
 16 36  1  0
 17 37  1  0
 18 38  1  0
 18 39  1  0
 19 40  1  0
 20 41  1  0
 20 42  1  0
 21 43  1  0
 21 44  1  0
M  END
>  <Energy>  (1227) 
36.652632978065213

>  <compound_id>  (1227) 
57892

>  <target_id>  (1227) 
1

>  <reference_id>  (1227) 
44

>  <inspiration_ids>  (1227) 
[89, 44]

>  <energy_score>  (1227) 
-3.458401429007381

>  <distance_score>  (1227) 
10.2680819610451

>  <path>  (1227) 
/opt/xchem-fragalysis-2/maxwin/BulkDock/SCRATCH/511022/C57892-P44/C57892-P44.minimised.mol

>  <scratch_subdir>  (1227) 
/opt/xchem-fragalysis-2/maxwin/BulkDock/SCRATCH/511022/C57892-P44

>  <fragmenstein_runtime>  (1227) 
27.07589030265808

>  <fragmenstein_outcome>  (1227) 
too moved

>  <fragmenstein_mode>  (1227) 
expansion

>  <fragmenstein_error>  (1227) 


$$$$
C57808-P44
     RDKit          3D

 44 46  0  0  0  0  0  0  0  0999 V2000
   -1.4721   -6.9541   30.4503 C   0  0  0  0  0  0  0  0  0  0  0  0
   -0.3385   -7.8994   31.1361 C   0  0  0  0  0  0  0  0  0  0  0  0
   -1.1854   -7.9143   32.7616 C   0  0  0  0  0  0  0  0  0  0  0  0
    0.0712   -8.9551   30.0121 N   0  0  0  0  0  0  0  0  0  0  0  0
    0.5277   -7.8127   31.3615 C   0  0  0  0  0  0  0  0  0  0  0  0
    1.0163   -6.1464   30.8103 C   0  0  0  0  0  0  0  0  0  0  0  0
    0.9571   -5.1485   32.0126 C   0  0  0  0  0  0  0  0  0  0  0  0
    2.4914   -5.2809   32.0873 C   0  0  0  0  0  0  0  0  0  0  0  0
    2.4420   -5.5807   30.5790 C   0  0  0  0  0  0  0  0  0  0  0  0
    1.4570   -9.6395   29.4542 C   0  0  0  0  0  0  0  0  0  0  0  0
    1.9886   -9.0059   28.5301 O   0  0  0  0  0  0  0  0  0  0  0  0
    2.2792  -11.5456   30.0149 C   0  0  0  0  0  0  0  0  0  0  0  0
    2.2306  -12.4346   31.2884 C   0  0  0  0  0  0  0  0  0  0  0  0
    2.4908  -14.0099   32.0455 C   0  0  0  0  0  0  0  0  0  0  0  0
    1.7577  -14.8367   33.0664 C   0  0  0  0  0  0  0  0  0  0  0  0
    1.7142  -16.2533   33.1840 C   0  0  0  0  0  0  0  0  0  0  0  0
    2.4931  -16.9855   32.3792 C   0  0  0  0  0  0  0  0  0  0  0  0
    2.9180  -16.2657   31.2980 C   0  0  0  0  0  0  0  0  0  0  0  0
    2.8275  -14.8583   31.1057 C   0  0  0  0  0  0  0  0  0  0  0  0
    2.6605  -14.3128   29.8146 O   0  0  0  0  0  0  0  0  0  0  0  0
    3.0955  -12.6750   29.3928 C   0  0  0  0  0  0  0  0  0  0  0  0
   -1.3936   -5.9214   30.8067 H   0  0  0  0  0  0  0  0  0  0  0  0
   -1.3952   -7.0389   29.3721 H   0  0  0  0  0  0  0  0  0  0  0  0
   -2.4684   -7.2885   30.7586 H   0  0  0  0  0  0  0  0  0  0  0  0
   -1.1059   -8.7980   31.1445 H   0  0  0  0  0  0  0  0  0  0  0  0
   -0.6021   -8.4657   33.4997 H   0  0  0  0  0  0  0  0  0  0  0  0
   -1.2877   -6.8764   33.0971 H   0  0  0  0  0  0  0  0  0  0  0  0
   -2.1889   -8.3522   32.6776 H   0  0  0  0  0  0  0  0  0  0  0  0
    1.5653   -8.0097   31.1125 H   0  0  0  0  0  0  0  0  0  0  0  0
    0.9650   -8.0829   32.4295 H   0  0  0  0  0  0  0  0  0  0  0  0
    0.4428   -5.8728   29.9197 H   0  0  0  0  0  0  0  0  0  0  0  0
    0.4304   -5.4657   32.9135 H   0  0  0  0  0  0  0  0  0  0  0  0
    0.6084   -4.1462   31.7362 H   0  0  0  0  0  0  0  0  0  0  0  0
    2.8237   -6.1145   32.7142 H   0  0  0  0  0  0  0  0  0  0  0  0
    3.0346   -4.3782   32.3767 H   0  0  0  0  0  0  0  0  0  0  0  0
    2.4367   -4.6603   29.9752 H   0  0  0  0  0  0  0  0  0  0  0  0
    3.1662   -6.2303   30.1020 H   0  0  0  0  0  0  0  0  0  0  0  0
    3.2240  -12.2461   31.7313 H   0  0  0  0  0  0  0  0  0  0  0  0
    0.9001  -14.4564   33.6392 H   0  0  0  0  0  0  0  0  0  0  0  0
    1.0497  -16.7309   33.8981 H   0  0  0  0  0  0  0  0  0  0  0  0
    2.5872  -18.0571   32.4602 H   0  0  0  0  0  0  0  0  0  0  0  0
    3.4070  -16.7699   30.5080 H   0  0  0  0  0  0  0  0  0  0  0  0
    4.0846  -12.4214   29.6142 H   0  0  0  0  0  0  0  0  0  0  0  0
    3.1283  -12.9965   28.3679 H   0  0  0  0  0  0  0  0  0  0  0  0
  1  2  1  0
  2  3  1  0
  2  4  1  0
  4  5  1  0
  5  6  1  0
  6  7  1  0
  7  8  1  0
  8  9  1  0
  4 10  1  0
 10 11  2  0
 10 12  1  0
 12 13  2  0
 13 14  1  0
 14 15  2  0
 15 16  1  0
 16 17  2  0
 17 18  1  0
 18 19  2  0
 19 20  1  0
 20 21  1  0
  9  6  1  0
 21 12  1  0
 19 14  1  0
  1 22  1  0
  1 23  1  0
  1 24  1  0
  2 25  1  0
  3 26  1  0
  3 27  1  0
  3 28  1  0
  5 29  1  0
  5 30  1  0
  6 31  1  0
  7 32  1  0
  7 33  1  0
  8 34  1  0
  8 35  1  0
  9 36  1  0
  9 37  1  0
 13 38  1  0
 15 39  1  0
 16 40  1  0
 17 41  1  0
 18 42  1  0
 21 43  1  0
 21 44  1  0
M  END
>  <Energy>  (1228) 
1056.2829824181035

>  <compound_id>  (1228) 
57808

>  <target_id>  (1228) 
1

>  <reference_id>  (1228) 
44

>  <inspiration_ids>  (1228) 
[89, 44]

>  <energy_score>  (1228) 
970.6879802509825

>  <distance_score>  (1228) 
8.220406431377791

>  <path>  (1228) 
/opt/xchem-fragalysis-2/maxwin/BulkDock/SCRATCH/511022/C57808-P44/C57808-P44.minimised.mol

>  <scratch_subdir>  (1228) 
/opt/xchem-fragalysis-2/maxwin/BulkDock/SCRATCH/511022/C57808-P44

>  <fragmenstein_runtime>  (1228) 
23.604097604751587

>  <fragmenstein_outcome>  (1228) 
too moved

>  <fragmenstein_mode>  (1228) 
expansion

>  <fragmenstein_error>  (1228) 


$$$$
C57809-P44
     RDKit          3D

 49 51  0  0  0  0  0  0  0  0999 V2000
   -0.0681   -9.8377   29.3324 C   0  0  0  0  0  0  0  0  0  0  0  0
   -0.2030  -11.2785   30.6251 C   0  0  0  0  0  0  0  0  0  0  0  0
   -0.8444   -9.6934   31.4872 N   0  0  0  0  0  0  0  0  0  0  0  0
   -0.6942   -8.0928   31.2446 C   0  0  0  0  0  0  0  0  0  0  0  0
    0.6884   -7.3859   31.0501 C   0  0  0  0  0  0  0  0  0  0  0  0
    0.5719   -5.9898   30.7600 O   0  0  0  0  0  0  0  0  0  0  0  0
   -1.5025   -7.0611   32.1703 C   0  0  0  0  0  0  0  0  0  0  0  0
   -2.9615   -7.3670   32.4865 C   0  0  0  0  0  0  0  0  0  0  0  0
   -3.6570   -6.1976   33.2228 C   0  0  0  0  0  0  0  0  0  0  0  0
   -2.8489   -4.8987   33.2614 C   0  0  0  0  0  0  0  0  0  0  0  0
   -1.4340   -5.1268   33.8020 C   0  0  0  0  0  0  0  0  0  0  0  0
   -0.8435   -6.5093   33.4466 C   0  0  0  0  0  0  0  0  0  0  0  0
    1.4285  -12.6059   31.1425 C   0  0  0  0  0  0  0  0  0  0  0  0
    2.5154  -13.2963   30.4274 C   0  0  0  0  0  0  0  0  0  0  0  0
    2.5105  -15.1530   29.8426 C   0  0  0  0  0  0  0  0  0  0  0  0
    2.3867  -15.5170   28.4380 C   0  0  0  0  0  0  0  0  0  0  0  0
    3.0748  -16.9296   27.7654 C   0  0  0  0  0  0  0  0  0  0  0  0
    4.3188  -18.4661   28.3733 C   0  0  0  0  0  0  0  0  0  0  0  0
    4.1561  -18.0163   30.2654 C   0  0  0  0  0  0  0  0  0  0  0  0
    3.1798  -16.4373   30.7012 C   0  0  0  0  0  0  0  0  0  0  0  0
    2.8083  -15.8474   32.0097 O   0  0  0  0  0  0  0  0  0  0  0  0
    2.1559  -14.2033   32.1890 C   0  0  0  0  0  0  0  0  0  0  0  0
   -0.9588   -9.2585   29.3599 H   0  0  0  0  0  0  0  0  0  0  0  0
    0.8521   -9.2680   29.3472 H   0  0  0  0  0  0  0  0  0  0  0  0
   -0.2044  -10.0505   28.2905 H   0  0  0  0  0  0  0  0  0  0  0  0
   -1.2014  -11.5233   30.4590 H   0  0  0  0  0  0  0  0  0  0  0  0
   -0.5517   -9.7989   32.4465 H   0  0  0  0  0  0  0  0  0  0  0  0
   -1.2335   -7.8691   30.3233 H   0  0  0  0  0  0  0  0  0  0  0  0
    1.2057   -7.7507   30.1839 H   0  0  0  0  0  0  0  0  0  0  0  0
    1.3035   -7.4913   31.9425 H   0  0  0  0  0  0  0  0  0  0  0  0
    1.4401   -5.5750   30.8978 H   0  0  0  0  0  0  0  0  0  0  0  0
   -1.5730   -6.1884   31.5091 H   0  0  0  0  0  0  0  0  0  0  0  0
   -3.0124   -8.2491   33.1304 H   0  0  0  0  0  0  0  0  0  0  0  0
   -3.5115   -7.6069   31.5731 H   0  0  0  0  0  0  0  0  0  0  0  0
   -3.8517   -6.5131   34.2564 H   0  0  0  0  0  0  0  0  0  0  0  0
   -4.6425   -6.0141   32.7805 H   0  0  0  0  0  0  0  0  0  0  0  0
   -3.3638   -4.1548   33.8803 H   0  0  0  0  0  0  0  0  0  0  0  0
   -2.7920   -4.4676   32.2560 H   0  0  0  0  0  0  0  0  0  0  0  0
   -1.4317   -5.0190   34.8934 H   0  0  0  0  0  0  0  0  0  0  0  0
   -0.7795   -4.3367   33.4141 H   0  0  0  0  0  0  0  0  0  0  0  0
    0.2401   -6.3979   33.3757 H   0  0  0  0  0  0  0  0  0  0  0  0
   -1.0176   -7.2084   34.2747 H   0  0  0  0  0  0  0  0  0  0  0  0
    2.9911  -12.6950   29.6362 H   0  0  0  0  0  0  0  0  0  0  0  0
    2.0331  -14.8401   27.6761 H   0  0  0  0  0  0  0  0  0  0  0  0
    2.6113  -17.0437   26.7221 H   0  0  0  0  0  0  0  0  0  0  0  0
    4.5211  -19.3645   27.8429 H   0  0  0  0  0  0  0  0  0  0  0  0
    4.4474  -18.6926   31.0648 H   0  0  0  0  0  0  0  0  0  0  0  0
    1.4339  -14.4425   32.9976 H   0  0  0  0  0  0  0  0  0  0  0  0
    3.1744  -13.8973   32.5408 H   0  0  0  0  0  0  0  0  0  0  0  0
  1  2  1  0
  2  3  1  0
  3  4  1  0
  4  5  1  0
  5  6  1  0
  4  7  1  0
  7  8  1  0
  8  9  1  0
  9 10  1  0
 10 11  1  0
 11 12  1  0
  2 13  1  0
 13 14  2  0
 14 15  1  0
 15 16  2  0
 16 17  1  0
 17 18  2  0
 18 19  1  0
 19 20  2  0
 20 21  1  0
 21 22  1  0
 12  7  1  0
 22 13  1  0
 20 15  1  0
  1 23  1  0
  1 24  1  0
  1 25  1  0
  2 26  1  0
  3 27  1  0
  4 28  1  0
  5 29  1  0
  5 30  1  0
  6 31  1  0
  7 32  1  0
  8 33  1  0
  8 34  1  0
  9 35  1  0
  9 36  1  0
 10 37  1  0
 10 38  1  0
 11 39  1  0
 11 40  1  0
 12 41  1  0
 12 42  1  0
 14 43  1  0
 16 44  1  0
 17 45  1  0
 18 46  1  0
 19 47  1  0
 22 48  1  0
 22 49  1  0
M  END
>  <Energy>  (1229) 
1119.9554704732257

>  <compound_id>  (1229) 
57809

>  <target_id>  (1229) 
1

>  <reference_id>  (1229) 
44

>  <inspiration_ids>  (1229) 
[89, 44]

>  <energy_score>  (1229) 
1023.6024950681845

>  <distance_score>  (1229) 
7.881808997621552

>  <path>  (1229) 
/opt/xchem-fragalysis-2/maxwin/BulkDock/SCRATCH/511022/C57809-P44/C57809-P44.minimised.mol

>  <scratch_subdir>  (1229) 
/opt/xchem-fragalysis-2/maxwin/BulkDock/SCRATCH/511022/C57809-P44

>  <fragmenstein_runtime>  (1229) 
17.567723512649536

>  <fragmenstein_outcome>  (1229) 
too moved

>  <fragmenstein_mode>  (1229) 
expansion

>  <fragmenstein_error>  (1229) 


$$$$
C57811-P44
     RDKit          3D

 42 44  0  0  0  0  0  0  0  0999 V2000
   -1.0080   -8.0220   32.2269 O   0  0  0  0  0  0  0  0  0  0  0  0
   -0.6002   -8.6612   31.2737 C   0  0  0  0  0  0  0  0  0  0  0  0
   -1.1969   -9.8248   30.9345 O   0  0  0  0  0  0  0  0  0  0  0  0
    0.4912   -8.2444   30.3026 C   0  0  0  0  0  0  0  0  0  0  0  0
    1.4827   -9.3530   29.4636 C   0  0  0  0  0  0  0  0  0  0  0  0
    2.3416  -11.1396   29.6988 N   0  0  0  0  0  0  0  0  0  0  0  0
    2.4470  -12.4179   31.0306 C   0  0  0  0  0  0  0  0  0  0  0  0
    3.3908  -13.4906   32.0424 C   0  0  0  0  0  0  0  0  0  0  0  0
    2.9350  -14.6970   32.4757 C   0  0  0  0  0  0  0  0  0  0  0  0
    3.7727  -15.6504   33.1761 C   0  0  0  0  0  0  0  0  0  0  0  0
    3.5762  -17.0412   33.0239 C   0  0  0  0  0  0  0  0  0  0  0  0
    4.4427  -17.9311   33.6472 C   0  0  0  0  0  0  0  0  0  0  0  0
    5.4637  -17.4230   34.4527 C   0  0  0  0  0  0  0  0  0  0  0  0
    5.6443  -16.0321   34.6078 C   0  0  0  0  0  0  0  0  0  0  0  0
    4.8296  -15.1414   33.9247 C   0  0  0  0  0  0  0  0  0  0  0  0
    5.1245  -13.8000   33.9213 O   0  0  0  0  0  0  0  0  0  0  0  0
    4.7627  -13.0581   32.6931 C   0  0  0  0  0  0  0  0  0  0  0  0
    1.1203   -6.8394   30.5661 C   0  0  0  0  0  0  0  0  0  0  0  0
    1.5661   -6.3979   32.0032 C   0  0  0  0  0  0  0  0  0  0  0  0
    1.1079   -4.9752   31.6403 C   0  0  0  0  0  0  0  0  0  0  0  0
    0.1411   -5.6193   30.6355 C   0  0  0  0  0  0  0  0  0  0  0  0
   -0.5098  -10.4183   30.5448 H   0  0  0  0  0  0  0  0  0  0  0  0
   -0.2166   -8.0140   29.4961 H   0  0  0  0  0  0  0  0  0  0  0  0
    2.0669   -8.7925   28.7258 H   0  0  0  0  0  0  0  0  0  0  0  0
    0.6295   -9.6923   28.8372 H   0  0  0  0  0  0  0  0  0  0  0  0
    1.3855  -11.5195   29.7001 H   0  0  0  0  0  0  0  0  0  0  0  0
    3.0092  -11.7348   31.5872 H   0  0  0  0  0  0  0  0  0  0  0  0
    2.8026  -12.9905   30.2079 H   0  0  0  0  0  0  0  0  0  0  0  0
    1.9666  -15.1221   32.3522 H   0  0  0  0  0  0  0  0  0  0  0  0
    2.7587  -17.4112   32.4128 H   0  0  0  0  0  0  0  0  0  0  0  0
    4.3079  -19.0028   33.5345 H   0  0  0  0  0  0  0  0  0  0  0  0
    6.1182  -18.1223   34.9693 H   0  0  0  0  0  0  0  0  0  0  0  0
    6.4286  -15.6326   35.2404 H   0  0  0  0  0  0  0  0  0  0  0  0
    4.7862  -12.0120   33.0096 H   0  0  0  0  0  0  0  0  0  0  0  0
    5.6009  -13.1017   31.9980 H   0  0  0  0  0  0  0  0  0  0  0  0
    1.8860   -6.6239   29.8048 H   0  0  0  0  0  0  0  0  0  0  0  0
    2.6247   -6.4607   32.2458 H   0  0  0  0  0  0  0  0  0  0  0  0
    1.0072   -6.8363   32.8351 H   0  0  0  0  0  0  0  0  0  0  0  0
    1.8895   -4.3660   31.1720 H   0  0  0  0  0  0  0  0  0  0  0  0
    0.6455   -4.4026   32.4479 H   0  0  0  0  0  0  0  0  0  0  0  0
   -0.8412   -5.8256   31.0684 H   0  0  0  0  0  0  0  0  0  0  0  0
    0.0033   -5.0553   29.7106 H   0  0  0  0  0  0  0  0  0  0  0  0
  1  2  2  0
  2  3  1  0
  2  4  1  0
  4  5  1  0
  5  6  1  0
  6  7  1  0
  7  8  1  0
  8  9  2  0
  9 10  1  0
 10 11  2  0
 11 12  1  0
 12 13  2  0
 13 14  1  0
 14 15  2  0
 15 16  1  0
 16 17  1  0
  4 18  1  0
 18 19  1  0
 19 20  1  0
 20 21  1  0
 17  8  1  0
 21 18  1  0
 15 10  1  0
  3 22  1  0
  4 23  1  0
  5 24  1  0
  5 25  1  0
  6 26  1  0
  7 27  1  0
  7 28  1  0
  9 29  1  0
 11 30  1  0
 12 31  1  0
 13 32  1  0
 14 33  1  0
 17 34  1  0
 17 35  1  0
 18 36  1  0
 19 37  1  0
 19 38  1  0
 20 39  1  0
 20 40  1  0
 21 41  1  0
 21 42  1  0
M  END
>  <Energy>  (1230) 
324.78524285342797

>  <compound_id>  (1230) 
57811

>  <target_id>  (1230) 
1

>  <reference_id>  (1230) 
44

>  <inspiration_ids>  (1230) 
[89, 44]

>  <energy_score>  (1230) 
259.9513181798985

>  <distance_score>  (1230) 
8.398248653149492

>  <path>  (1230) 
/opt/xchem-fragalysis-2/maxwin/BulkDock/SCRATCH/511022/C57811-P44/C57811-P44.minimised.mol

>  <scratch_subdir>  (1230) 
/opt/xchem-fragalysis-2/maxwin/BulkDock/SCRATCH/511022/C57811-P44

>  <fragmenstein_runtime>  (1230) 
17.31123995780945

>  <fragmenstein_outcome>  (1230) 
too moved

>  <fragmenstein_mode>  (1230) 
expansion

>  <fragmenstein_error>  (1230) 


$$$$
C57812-P44
     RDKit          3D

 42 44  0  0  0  0  0  0  0  0999 V2000
    4.2587   -6.1854   28.9786 O   0  0  0  0  0  0  0  0  0  0  0  0
    3.6222   -7.0553   28.4207 C   0  0  0  0  0  0  0  0  0  0  0  0
    4.1069   -7.6600   27.3184 O   0  0  0  0  0  0  0  0  0  0  0  0
    2.2277   -7.6403   28.8035 C   0  0  0  0  0  0  0  0  0  0  0  0
    1.7179   -9.2603   29.4482 C   0  0  0  0  0  0  0  0  0  0  0  0
    2.4145  -11.1120   29.6770 N   0  0  0  0  0  0  0  0  0  0  0  0
    2.6512  -12.3429   30.9830 C   0  0  0  0  0  0  0  0  0  0  0  0
    3.5677  -13.4238   31.9497 C   0  0  0  0  0  0  0  0  0  0  0  0
    3.1165  -14.6720   32.2664 C   0  0  0  0  0  0  0  0  0  0  0  0
    3.8051  -15.5963   33.1472 C   0  0  0  0  0  0  0  0  0  0  0  0
    3.5692  -16.9825   33.0319 C   0  0  0  0  0  0  0  0  0  0  0  0
    4.3774  -17.8648   33.7291 C   0  0  0  0  0  0  0  0  0  0  0  0
    3.9713  -19.6975   33.7052 Br  0  0  0  0  0  0  0  0  0  0  0  0
    5.4083  -17.3715   34.5321 C   0  0  0  0  0  0  0  0  0  0  0  0
    5.6151  -15.9807   34.6602 C   0  0  0  0  0  0  0  0  0  0  0  0
    4.8280  -15.0862   33.9445 C   0  0  0  0  0  0  0  0  0  0  0  0
    5.1229  -13.7471   33.9672 O   0  0  0  0  0  0  0  0  0  0  0  0
    4.8017  -12.9588   32.7641 C   0  0  0  0  0  0  0  0  0  0  0  0
    1.6082   -6.5495   29.8206 C   0  0  0  0  0  0  0  0  0  0  0  0
    1.4556   -5.0458   29.4573 C   0  0  0  0  0  0  0  0  0  0  0  0
    0.2293   -4.9812   30.3869 C   0  0  0  0  0  0  0  0  0  0  0  0
    0.1568   -6.5199   30.3836 C   0  0  0  0  0  0  0  0  0  0  0  0
    4.9660   -7.2114   27.1357 H   0  0  0  0  0  0  0  0  0  0  0  0
    1.8472   -7.6866   27.7949 H   0  0  0  0  0  0  0  0  0  0  0  0
    0.8090   -9.4405   28.8302 H   0  0  0  0  0  0  0  0  0  0  0  0
    1.1662   -8.8553   30.3180 H   0  0  0  0  0  0  0  0  0  0  0  0
    1.4264  -11.4193   29.7558 H   0  0  0  0  0  0  0  0  0  0  0  0
    2.9776  -11.6674   31.7244 H   0  0  0  0  0  0  0  0  0  0  0  0
    1.6377  -12.6312   31.1926 H   0  0  0  0  0  0  0  0  0  0  0  0
    2.3496  -15.1949   31.7601 H   0  0  0  0  0  0  0  0  0  0  0  0
    2.7635  -17.3475   32.4023 H   0  0  0  0  0  0  0  0  0  0  0  0
    6.0277  -18.0654   35.0969 H   0  0  0  0  0  0  0  0  0  0  0  0
    6.3920  -15.5894   35.3085 H   0  0  0  0  0  0  0  0  0  0  0  0
    4.6888  -11.9349   33.1237 H   0  0  0  0  0  0  0  0  0  0  0  0
    5.6979  -12.9414   32.1410 H   0  0  0  0  0  0  0  0  0  0  0  0
    2.2646   -6.5450   30.7076 H   0  0  0  0  0  0  0  0  0  0  0  0
    1.2556   -4.8021   28.4145 H   0  0  0  0  0  0  0  0  0  0  0  0
    2.2898   -4.4111   29.7767 H   0  0  0  0  0  0  0  0  0  0  0  0
   -0.6428   -4.4682   29.9730 H   0  0  0  0  0  0  0  0  0  0  0  0
    0.4526   -4.5590   31.3731 H   0  0  0  0  0  0  0  0  0  0  0  0
   -0.6367   -6.9364   29.7624 H   0  0  0  0  0  0  0  0  0  0  0  0
    0.0483   -6.9650   31.3791 H   0  0  0  0  0  0  0  0  0  0  0  0
  1  2  2  0
  2  3  1  0
  2  4  1  0
  4  5  1  0
  5  6  1  0
  6  7  1  0
  7  8  1  0
  8  9  2  0
  9 10  1  0
 10 11  2  0
 11 12  1  0
 12 13  1  0
 12 14  2  0
 14 15  1  0
 15 16  2  0
 16 17  1  0
 17 18  1  0
  4 19  1  0
 19 20  1  0
 20 21  1  0
 21 22  1  0
 18  8  1  0
 22 19  1  0
 16 10  1  0
  3 23  1  0
  4 24  1  0
  5 25  1  0
  5 26  1  0
  6 27  1  0
  7 28  1  0
  7 29  1  0
  9 30  1  0
 11 31  1  0
 14 32  1  0
 15 33  1  0
 18 34  1  0
 18 35  1  0
 19 36  1  0
 20 37  1  0
 20 38  1  0
 21 39  1  0
 21 40  1  0
 22 41  1  0
 22 42  1  0
M  END
>  <Energy>  (1231) 
307.71646364074712

>  <compound_id>  (1231) 
57812

>  <target_id>  (1231) 
1

>  <reference_id>  (1231) 
44

>  <inspiration_ids>  (1231) 
[89, 44]

>  <energy_score>  (1231) 
262.9920909131596

>  <distance_score>  (1231) 
7.934123283419194

>  <path>  (1231) 
/opt/xchem-fragalysis-2/maxwin/BulkDock/SCRATCH/511022/C57812-P44/C57812-P44.minimised.mol

>  <scratch_subdir>  (1231) 
/opt/xchem-fragalysis-2/maxwin/BulkDock/SCRATCH/511022/C57812-P44

>  <fragmenstein_runtime>  (1231) 
18.178044080734253

>  <fragmenstein_outcome>  (1231) 
too moved

>  <fragmenstein_mode>  (1231) 
expansion

>  <fragmenstein_error>  (1231) 


$$$$
C57813-P44
     RDKit          3D

 39 41  0  0  0  0  0  0  0  0999 V2000
    3.5848  -18.3138   32.6954 C   0  0  0  0  0  0  0  0  0  0  0  0
    4.3558  -17.3434   33.5410 C   0  0  0  0  0  0  0  0  0  0  0  0
    5.2368  -17.8063   34.5112 C   0  0  0  0  0  0  0  0  0  0  0  0
    5.8495  -16.8959   35.3831 C   0  0  0  0  0  0  0  0  0  0  0  0
    5.7171  -15.5107   35.2156 C   0  0  0  0  0  0  0  0  0  0  0  0
    4.9160  -15.0120   34.2008 C   0  0  0  0  0  0  0  0  0  0  0  0
    4.1812  -15.9447   33.4144 C   0  0  0  0  0  0  0  0  0  0  0  0
    4.8638  -13.5484   34.0109 C   0  0  0  0  0  0  0  0  0  0  0  0
    5.3021  -12.7288   34.9922 C   0  0  0  0  0  0  0  0  0  0  0  0
    5.1475  -11.2266   34.8651 C   0  0  0  0  0  0  0  0  0  0  0  0
    5.3130  -10.6147   33.8220 O   0  0  0  0  0  0  0  0  0  0  0  0
    4.7045  -10.6202   36.0114 O   0  0  0  0  0  0  0  0  0  0  0  0
    3.7406   -9.5084   35.8816 C   0  0  0  0  0  0  0  0  0  0  0  0
    4.1957   -8.0802   35.4148 C   0  0  0  0  0  0  0  0  0  0  0  0
    3.1968   -7.3685   34.5658 N   0  0  0  0  0  0  0  0  0  0  0  0
    2.0362   -6.8259   35.3276 C   0  0  0  0  0  0  0  0  0  0  0  0
    2.1168   -5.5719   34.4245 C   0  0  0  0  0  0  0  0  0  0  0  0
    3.6093   -5.9425   34.3244 C   0  0  0  0  0  0  0  0  0  0  0  0
    5.9126  -13.3330   36.2165 C   0  0  0  0  0  0  0  0  0  0  0  0
    6.4085  -14.6942   36.0711 O   0  0  0  0  0  0  0  0  0  0  0  0
    2.5853  -17.9200   32.4891 H   0  0  0  0  0  0  0  0  0  0  0  0
    4.1167  -18.4987   31.7624 H   0  0  0  0  0  0  0  0  0  0  0  0
    3.4513  -19.2680   33.2164 H   0  0  0  0  0  0  0  0  0  0  0  0
    5.3915  -18.8739   34.6573 H   0  0  0  0  0  0  0  0  0  0  0  0
    6.4547  -17.2836   36.2011 H   0  0  0  0  0  0  0  0  0  0  0  0
    3.4426  -15.5764   32.6967 H   0  0  0  0  0  0  0  0  0  0  0  0
    4.4516  -13.1674   33.0804 H   0  0  0  0  0  0  0  0  0  0  0  0
    3.2862   -9.4063   36.8746 H   0  0  0  0  0  0  0  0  0  0  0  0
    2.9333   -9.8573   35.2415 H   0  0  0  0  0  0  0  0  0  0  0  0
    5.1319   -8.1816   34.8566 H   0  0  0  0  0  0  0  0  0  0  0  0
    4.4474   -7.4953   36.3094 H   0  0  0  0  0  0  0  0  0  0  0  0
    2.2228   -6.6224   36.3897 H   0  0  0  0  0  0  0  0  0  0  0  0
    1.1164   -7.4100   35.2338 H   0  0  0  0  0  0  0  0  0  0  0  0
    1.5656   -5.6599   33.4810 H   0  0  0  0  0  0  0  0  0  0  0  0
    1.8837   -4.6164   34.8989 H   0  0  0  0  0  0  0  0  0  0  0  0
    4.0704   -5.7457   33.3540 H   0  0  0  0  0  0  0  0  0  0  0  0
    4.2302   -5.4921   35.1095 H   0  0  0  0  0  0  0  0  0  0  0  0
    5.1904  -13.3298   37.0414 H   0  0  0  0  0  0  0  0  0  0  0  0
    6.7745  -12.7339   36.5301 H   0  0  0  0  0  0  0  0  0  0  0  0
  1  2  1  0
  2  3  2  0
  3  4  1  0
  4  5  2  0
  5  6  1  0
  6  7  2  0
  6  8  1  0
  8  9  2  0
  9 10  1  0
 10 11  2  0
 10 12  1  0
 12 13  1  0
 13 14  1  0
 14 15  1  0
 15 16  1  0
 16 17  1  0
 17 18  1  0
  9 19  1  0
 19 20  1  0
  7  2  1  0
 18 15  1  0
 20  5  1  0
  1 21  1  0
  1 22  1  0
  1 23  1  0
  3 24  1  0
  4 25  1  0
  7 26  1  0
  8 27  1  0
 13 28  1  0
 13 29  1  0
 14 30  1  0
 14 31  1  0
 16 32  1  0
 16 33  1  0
 17 34  1  0
 17 35  1  0
 18 36  1  0
 18 37  1  0
 19 38  1  0
 19 39  1  0
M  END
>  <Energy>  (1232) 
64.47991627389122

>  <compound_id>  (1232) 
57813

>  <target_id>  (1232) 
1

>  <reference_id>  (1232) 
44

>  <inspiration_ids>  (1232) 
[89, 44]

>  <energy_score>  (1232) 
-5.113528084863333

>  <distance_score>  (1232) 
9.762715929965493

>  <path>  (1232) 
/opt/xchem-fragalysis-2/maxwin/BulkDock/SCRATCH/511022/C57813-P44/C57813-P44.minimised.mol

>  <scratch_subdir>  (1232) 
/opt/xchem-fragalysis-2/maxwin/BulkDock/SCRATCH/511022/C57813-P44

>  <fragmenstein_runtime>  (1232) 
12.06636667251587

>  <fragmenstein_outcome>  (1232) 
too moved

>  <fragmenstein_mode>  (1232) 
expansion

>  <fragmenstein_error>  (1232) 


$$$$
C27266-P44
     RDKit          3D

 46 48  0  0  0  0  0  0  0  0999 V2000
    3.8741  -19.3816   33.5862 C   0  0  0  0  0  0  0  0  0  0  0  0
    4.1379  -17.9078   33.5362 C   0  0  0  0  0  0  0  0  0  0  0  0
    5.1909  -17.3324   34.2640 C   0  0  0  0  0  0  0  0  0  0  0  0
    5.3214  -15.9303   34.3567 C   0  0  0  0  0  0  0  0  0  0  0  0
    4.4371  -15.0937   33.6652 C   0  0  0  0  0  0  0  0  0  0  0  0
    3.4686  -15.6671   32.8490 C   0  0  0  0  0  0  0  0  0  0  0  0
    3.2723  -17.0613   32.8377 C   0  0  0  0  0  0  0  0  0  0  0  0
    2.8512  -14.8240   31.8256 C   0  0  0  0  0  0  0  0  0  0  0  0
    3.1496  -13.5235   31.4894 C   0  0  0  0  0  0  0  0  0  0  0  0
    2.0818  -12.3971   30.9544 C   0  0  0  0  0  0  0  0  0  0  0  0
    1.0647  -12.5018   31.5601 O   0  0  0  0  0  0  0  0  0  0  0  0
    2.4137  -11.1419   29.8239 N   0  0  0  0  0  0  0  0  0  0  0  0
    1.3538   -9.4766   29.3248 C   0  0  0  0  0  0  0  0  0  0  0  0
    0.8182   -8.0659   30.3470 C   0  0  0  0  0  0  0  0  0  0  0  0
   -0.6519   -8.2709   30.7065 C   0  0  0  0  0  0  0  0  0  0  0  0
    0.8937   -6.6563   29.7805 N   0  0  0  0  0  0  0  0  0  0  0  0
    2.2070   -6.0754   29.4859 C   0  0  0  0  0  0  0  0  0  0  0  0
    1.9200   -4.6039   29.1722 C   0  0  0  0  0  0  0  0  0  0  0  0
    0.6368   -4.2906   29.9248 C   0  0  0  0  0  0  0  0  0  0  0  0
    0.2715   -5.5980   30.6241 C   0  0  0  0  0  0  0  0  0  0  0  0
    4.3357  -13.0076   32.4377 C   0  0  0  0  0  0  0  0  0  0  0  0
    4.6311  -13.7387   33.6819 O   0  0  0  0  0  0  0  0  0  0  0  0
    3.3329  -19.6284   34.5051 H   0  0  0  0  0  0  0  0  0  0  0  0
    3.2600  -19.6931   32.7423 H   0  0  0  0  0  0  0  0  0  0  0  0
    4.8101  -19.9443   33.5726 H   0  0  0  0  0  0  0  0  0  0  0  0
    5.8770  -17.9752   34.8120 H   0  0  0  0  0  0  0  0  0  0  0  0
    6.1129  -15.4887   34.9528 H   0  0  0  0  0  0  0  0  0  0  0  0
    2.4481  -17.4737   32.2651 H   0  0  0  0  0  0  0  0  0  0  0  0
    2.4232  -15.4784   31.0706 H   0  0  0  0  0  0  0  0  0  0  0  0
    3.2786  -11.3210   29.3982 H   0  0  0  0  0  0  0  0  0  0  0  0
    0.4029   -9.7888   28.8740 H   0  0  0  0  0  0  0  0  0  0  0  0
    1.9556   -8.9434   28.5741 H   0  0  0  0  0  0  0  0  0  0  0  0
    1.3151   -8.0173   31.3080 H   0  0  0  0  0  0  0  0  0  0  0  0
   -0.8936   -9.3263   30.8444 H   0  0  0  0  0  0  0  0  0  0  0  0
   -0.9169   -7.7672   31.6430 H   0  0  0  0  0  0  0  0  0  0  0  0
   -1.2778   -7.8607   29.9135 H   0  0  0  0  0  0  0  0  0  0  0  0
    2.8486   -6.1028   30.3689 H   0  0  0  0  0  0  0  0  0  0  0  0
    2.7141   -6.5720   28.6539 H   0  0  0  0  0  0  0  0  0  0  0  0
    2.7456   -3.9628   29.4981 H   0  0  0  0  0  0  0  0  0  0  0  0
    1.7820   -4.4443   28.0980 H   0  0  0  0  0  0  0  0  0  0  0  0
   -0.1478   -3.9893   29.2213 H   0  0  0  0  0  0  0  0  0  0  0  0
    0.7741   -3.4775   30.6446 H   0  0  0  0  0  0  0  0  0  0  0  0
    0.6922   -5.6161   31.6374 H   0  0  0  0  0  0  0  0  0  0  0  0
   -0.8158   -5.6827   30.6945 H   0  0  0  0  0  0  0  0  0  0  0  0
    5.2883  -12.9747   31.8995 H   0  0  0  0  0  0  0  0  0  0  0  0
    4.1979  -11.9781   32.7476 H   0  0  0  0  0  0  0  0  0  0  0  0
  1  2  1  0
  2  3  2  0
  3  4  1  0
  4  5  2  0
  5  6  1  0
  6  7  2  0
  6  8  1  0
  8  9  2  0
  9 10  1  0
 10 11  2  0
 10 12  1  0
 12 13  1  0
 13 14  1  0
 14 15  1  0
 14 16  1  0
 16 17  1  0
 17 18  1  0
 18 19  1  0
 19 20  1  0
  9 21  1  0
 21 22  1  0
  7  2  1  0
 20 16  1  0
 22  5  1  0
  1 23  1  0
  1 24  1  0
  1 25  1  0
  3 26  1  0
  4 27  1  0
  7 28  1  0
  8 29  1  0
 12 30  1  0
 13 31  1  0
 13 32  1  0
 14 33  1  0
 15 34  1  0
 15 35  1  0
 15 36  1  0
 17 37  1  0
 17 38  1  0
 18 39  1  0
 18 40  1  0
 19 41  1  0
 19 42  1  0
 20 43  1  0
 20 44  1  0
 21 45  1  0
 21 46  1  0
M  END
>  <Energy>  (1233) 
248.70862099349529

>  <compound_id>  (1233) 
27266

>  <target_id>  (1233) 
1

>  <reference_id>  (1233) 
44

>  <inspiration_ids>  (1233) 
[89, 44]

>  <energy_score>  (1233) 
170.8794885115525

>  <distance_score>  (1233) 
7.796035422884169

>  <path>  (1233) 
/opt/xchem-fragalysis-2/maxwin/BulkDock/SCRATCH/511022/C27266-P44/C27266-P44.minimised.mol

>  <scratch_subdir>  (1233) 
/opt/xchem-fragalysis-2/maxwin/BulkDock/SCRATCH/511022/C27266-P44

>  <fragmenstein_runtime>  (1233) 
21.197611331939697

>  <fragmenstein_outcome>  (1233) 
too moved

>  <fragmenstein_mode>  (1233) 
expansion

>  <fragmenstein_error>  (1233) 


$$$$
C27267-P44
     RDKit          3D

 46 48  0  0  0  0  0  0  0  0999 V2000
    3.4899  -18.6779   32.7014 C   0  0  0  0  0  0  0  0  0  0  0  0
    3.6896  -17.2284   32.9996 C   0  0  0  0  0  0  0  0  0  0  0  0
    4.7692  -16.8392   33.8057 C   0  0  0  0  0  0  0  0  0  0  0  0
    4.9504  -15.4828   34.0980 C   0  0  0  0  0  0  0  0  0  0  0  0
    4.1415  -14.5171   33.4639 C   0  0  0  0  0  0  0  0  0  0  0  0
    3.1620  -14.8684   32.5369 C   0  0  0  0  0  0  0  0  0  0  0  0
    2.8870  -16.2426   32.3776 C   0  0  0  0  0  0  0  0  0  0  0  0
    2.7450  -13.8307   31.4975 C   0  0  0  0  0  0  0  0  0  0  0  0
    2.9030  -12.4652   31.4405 C   0  0  0  0  0  0  0  0  0  0  0  0
    2.7505  -11.6828   29.8290 C   0  0  0  0  0  0  0  0  0  0  0  0
    3.2011  -12.4323   28.9829 O   0  0  0  0  0  0  0  0  0  0  0  0
    2.1262   -9.8798   29.5484 N   0  0  0  0  0  0  0  0  0  0  0  0
    2.1423   -8.8493   28.1627 C   0  0  0  0  0  0  0  0  0  0  0  0
    1.6748   -7.4432   28.7382 C   0  0  0  0  0  0  0  0  0  0  0  0
    2.3954   -6.2374   29.4741 C   0  0  0  0  0  0  0  0  0  0  0  0
    1.7933   -4.9331   29.0927 N   0  0  0  0  0  0  0  0  0  0  0  0
    0.7051   -4.4606   29.9594 C   0  0  0  0  0  0  0  0  0  0  0  0
    0.4651   -3.0463   29.4429 C   0  0  0  0  0  0  0  0  0  0  0  0
    1.8437   -2.5659   29.0086 C   0  0  0  0  0  0  0  0  0  0  0  0
    2.7362   -3.8061   29.0798 C   0  0  0  0  0  0  0  0  0  0  0  0
    4.3488  -12.4095   32.4476 C   0  0  0  0  0  0  0  0  0  0  0  0
    4.4799  -13.2185   33.6480 O   0  0  0  0  0  0  0  0  0  0  0  0
    4.1152  -18.9353   31.8495 H   0  0  0  0  0  0  0  0  0  0  0  0
    2.4456  -18.8731   32.4713 H   0  0  0  0  0  0  0  0  0  0  0  0
    3.7638  -19.3040   33.5564 H   0  0  0  0  0  0  0  0  0  0  0  0
    5.4326  -17.5850   34.2366 H   0  0  0  0  0  0  0  0  0  0  0  0
    5.7584  -15.1631   34.7481 H   0  0  0  0  0  0  0  0  0  0  0  0
    2.1225  -16.5441   31.6673 H   0  0  0  0  0  0  0  0  0  0  0  0
    2.5471  -14.3192   30.5496 H   0  0  0  0  0  0  0  0  0  0  0  0
    1.7339   -9.5195   30.3808 H   0  0  0  0  0  0  0  0  0  0  0  0
    2.6306   -9.2613   27.2654 H   0  0  0  0  0  0  0  0  0  0  0  0
    2.9610   -8.1217   27.9012 H   0  0  0  0  0  0  0  0  0  0  0  0
    1.6824   -6.9488   27.7790 H   0  0  0  0  0  0  0  0  0  0  0  0
    0.7390   -7.6402   29.2646 H   0  0  0  0  0  0  0  0  0  0  0  0
    3.4497   -6.2524   29.1710 H   0  0  0  0  0  0  0  0  0  0  0  0
    2.3532   -6.3466   30.5619 H   0  0  0  0  0  0  0  0  0  0  0  0
   -0.2000   -5.0678   29.8945 H   0  0  0  0  0  0  0  0  0  0  0  0
    1.0205   -4.4281   31.0103 H   0  0  0  0  0  0  0  0  0  0  0  0
    0.0247   -2.3991   30.2073 H   0  0  0  0  0  0  0  0  0  0  0  0
   -0.2125   -3.0631   28.5808 H   0  0  0  0  0  0  0  0  0  0  0  0
    2.2191   -1.7791   29.6712 H   0  0  0  0  0  0  0  0  0  0  0  0
    1.8019   -2.1604   27.9925 H   0  0  0  0  0  0  0  0  0  0  0  0
    3.3352   -3.7815   29.9990 H   0  0  0  0  0  0  0  0  0  0  0  0
    3.4158   -3.8572   28.2233 H   0  0  0  0  0  0  0  0  0  0  0  0
    4.4918  -11.3936   32.8387 H   0  0  0  0  0  0  0  0  0  0  0  0
    5.2380  -12.6872   31.8632 H   0  0  0  0  0  0  0  0  0  0  0  0
  1  2  1  0
  2  3  2  0
  3  4  1  0
  4  5  2  0
  5  6  1  0
  6  7  2  0
  6  8  1  0
  8  9  2  0
  9 10  1  0
 10 11  2  0
 10 12  1  0
 12 13  1  0
 13 14  1  0
 14 15  1  0
 15 16  1  0
 16 17  1  0
 17 18  1  0
 18 19  1  0
 19 20  1  0
  9 21  1  0
 21 22  1  0
  7  2  1  0
 20 16  1  0
 22  5  1  0
  1 23  1  0
  1 24  1  0
  1 25  1  0
  3 26  1  0
  4 27  1  0
  7 28  1  0
  8 29  1  0
 12 30  1  0
 13 31  1  0
 13 32  1  0
 14 33  1  0
 14 34  1  0
 15 35  1  0
 15 36  1  0
 17 37  1  0
 17 38  1  0
 18 39  1  0
 18 40  1  0
 19 41  1  0
 19 42  1  0
 20 43  1  0
 20 44  1  0
 21 45  1  0
 21 46  1  0
M  END
>  <Energy>  (1234) 
307.05986343325446

>  <compound_id>  (1234) 
27267

>  <target_id>  (1234) 
1

>  <reference_id>  (1234) 
44

>  <inspiration_ids>  (1234) 
[89, 44]

>  <energy_score>  (1234) 
270.1094901528613

>  <distance_score>  (1234) 
7.296779687663235

>  <path>  (1234) 
/opt/xchem-fragalysis-2/maxwin/BulkDock/SCRATCH/511022/C27267-P44/C27267-P44.minimised.mol

>  <scratch_subdir>  (1234) 
/opt/xchem-fragalysis-2/maxwin/BulkDock/SCRATCH/511022/C27267-P44

>  <fragmenstein_runtime>  (1234) 
17.742851495742798

>  <fragmenstein_outcome>  (1234) 
too moved

>  <fragmenstein_mode>  (1234) 
expansion

>  <fragmenstein_error>  (1234) 


$$$$
C57816-P44
     RDKit          3D

 45 47  0  0  0  0  0  0  0  0999 V2000
    3.4939  -18.6626   32.7084 C   0  0  0  0  0  0  0  0  0  0  0  0
    3.7016  -17.2134   33.0064 C   0  0  0  0  0  0  0  0  0  0  0  0
    4.7819  -16.8282   33.8143 C   0  0  0  0  0  0  0  0  0  0  0  0
    4.9682  -15.4726   34.1103 C   0  0  0  0  0  0  0  0  0  0  0  0
    4.1649  -14.5019   33.4775 C   0  0  0  0  0  0  0  0  0  0  0  0
    3.1842  -14.8506   32.5487 C   0  0  0  0  0  0  0  0  0  0  0  0
    2.9026  -16.2237   32.3865 C   0  0  0  0  0  0  0  0  0  0  0  0
    2.7668  -13.8089   31.5152 C   0  0  0  0  0  0  0  0  0  0  0  0
    2.9562  -12.4476   31.4723 C   0  0  0  0  0  0  0  0  0  0  0  0
    2.7241  -11.6214   29.8740 C   0  0  0  0  0  0  0  0  0  0  0  0
    3.1058  -12.3589   28.9955 O   0  0  0  0  0  0  0  0  0  0  0  0
    2.0840   -9.7094   29.6939 N   0  0  0  0  0  0  0  0  0  0  0  0
    1.8013   -8.6879   28.3438 S   0  0  0  0  0  0  0  0  0  0  0  0
    2.6422   -8.8051   27.1833 O   0  0  0  0  0  0  0  0  0  0  0  0
    0.3603   -8.7211   28.3982 O   0  0  0  0  0  0  0  0  0  0  0  0
    2.2573   -6.9391   28.8903 C   0  0  0  0  0  0  0  0  0  0  0  0
    1.4915   -6.3904   30.0963 C   0  0  0  0  0  0  0  0  0  0  0  0
    0.5377   -5.4060   29.7245 O   0  0  0  0  0  0  0  0  0  0  0  0
    0.8509   -4.0276   30.0204 C   0  0  0  0  0  0  0  0  0  0  0  0
    1.9196   -3.3479   29.1282 C   0  0  0  0  0  0  0  0  0  0  0  0
    1.0553   -2.0743   29.1743 C   0  0  0  0  0  0  0  0  0  0  0  0
   -0.1506   -2.9871   29.4620 C   0  0  0  0  0  0  0  0  0  0  0  0
    4.3872  -12.3890   32.4723 C   0  0  0  0  0  0  0  0  0  0  0  0
    4.5080  -13.2037   33.6655 O   0  0  0  0  0  0  0  0  0  0  0  0
    3.7670  -19.2896   33.5630 H   0  0  0  0  0  0  0  0  0  0  0  0
    4.1150  -18.9248   31.8547 H   0  0  0  0  0  0  0  0  0  0  0  0
    2.4476  -18.8533   32.4813 H   0  0  0  0  0  0  0  0  0  0  0  0
    5.4408  -17.5775   34.2466 H   0  0  0  0  0  0  0  0  0  0  0  0
    5.7756  -15.1596   34.7647 H   0  0  0  0  0  0  0  0  0  0  0  0
    2.1365  -16.5252   31.6779 H   0  0  0  0  0  0  0  0  0  0  0  0
    2.5431  -14.2884   30.5705 H   0  0  0  0  0  0  0  0  0  0  0  0
    1.7475   -9.3604   30.5560 H   0  0  0  0  0  0  0  0  0  0  0  0
    3.3389   -6.9396   29.0669 H   0  0  0  0  0  0  0  0  0  0  0  0
    2.1577   -6.2967   28.0134 H   0  0  0  0  0  0  0  0  0  0  0  0
    2.1990   -5.9537   30.8106 H   0  0  0  0  0  0  0  0  0  0  0  0
    0.9474   -7.1786   30.6245 H   0  0  0  0  0  0  0  0  0  0  0  0
    1.0321   -3.8864   31.0945 H   0  0  0  0  0  0  0  0  0  0  0  0
    2.0143   -3.7832   28.1273 H   0  0  0  0  0  0  0  0  0  0  0  0
    2.9145   -3.2542   29.5709 H   0  0  0  0  0  0  0  0  0  0  0  0
    1.3059   -1.4016   30.0024 H   0  0  0  0  0  0  0  0  0  0  0  0
    1.0056   -1.4978   28.2475 H   0  0  0  0  0  0  0  0  0  0  0  0
   -0.6814   -3.3164   28.5628 H   0  0  0  0  0  0  0  0  0  0  0  0
   -0.8757   -2.5939   30.1792 H   0  0  0  0  0  0  0  0  0  0  0  0
    5.2784  -12.6641   31.8878 H   0  0  0  0  0  0  0  0  0  0  0  0
    4.5294  -11.3724   32.8625 H   0  0  0  0  0  0  0  0  0  0  0  0
  1  2  1  0
  2  3  2  0
  3  4  1  0
  4  5  2  0
  5  6  1  0
  6  7  2  0
  6  8  1  0
  8  9  2  0
  9 10  1  0
 10 11  2  0
 10 12  1  0
 12 13  1  0
 13 14  2  0
 13 15  2  0
 13 16  1  0
 16 17  1  0
 17 18  1  0
 18 19  1  0
 19 20  1  0
 20 21  1  0
 21 22  1  0
  9 23  1  0
 23 24  1  0
  7  2  1  0
 22 19  1  0
 24  5  1  0
  1 25  1  0
  1 26  1  0
  1 27  1  0
  3 28  1  0
  4 29  1  0
  7 30  1  0
  8 31  1  0
 12 32  1  0
 16 33  1  0
 16 34  1  0
 17 35  1  0
 17 36  1  0
 19 37  1  0
 20 38  1  0
 20 39  1  0
 21 40  1  0
 21 41  1  0
 22 42  1  0
 22 43  1  0
 23 44  1  0
 23 45  1  0
M  END
>  <Energy>  (1235) 
133.60619193278171

>  <compound_id>  (1235) 
57816

>  <target_id>  (1235) 
1

>  <reference_id>  (1235) 
44

>  <inspiration_ids>  (1235) 
[89, 44]

>  <energy_score>  (1235) 
187.5074171924506

>  <distance_score>  (1235) 
8.409126879858396

>  <path>  (1235) 
/opt/xchem-fragalysis-2/maxwin/BulkDock/SCRATCH/511022/C57816-P44/C57816-P44.minimised.mol

>  <scratch_subdir>  (1235) 
/opt/xchem-fragalysis-2/maxwin/BulkDock/SCRATCH/511022/C57816-P44

>  <fragmenstein_runtime>  (1235) 
32.844414472579956

>  <fragmenstein_outcome>  (1235) 
too moved

>  <fragmenstein_mode>  (1235) 
expansion

>  <fragmenstein_error>  (1235) 


$$$$
C57822-P44
     RDKit          3D

 40 42  0  0  0  0  0  0  0  0999 V2000
    3.3393  -20.0391   33.6544 C   0  0  0  0  0  0  0  0  0  0  0  0
    3.7506  -18.6238   33.4476 C   0  0  0  0  0  0  0  0  0  0  0  0
    4.9092  -18.2270   34.1085 C   0  0  0  0  0  0  0  0  0  0  0  0
    5.2083  -16.8881   34.1714 C   0  0  0  0  0  0  0  0  0  0  0  0
    4.4014  -15.9647   33.5066 C   0  0  0  0  0  0  0  0  0  0  0  0
    3.3537  -16.3314   32.6762 C   0  0  0  0  0  0  0  0  0  0  0  0
    2.9777  -17.6804   32.7332 C   0  0  0  0  0  0  0  0  0  0  0  0
    2.8013  -15.3300   31.7034 C   0  0  0  0  0  0  0  0  0  0  0  0
    3.0094  -13.9642   31.6806 C   0  0  0  0  0  0  0  0  0  0  0  0
    2.8655  -12.3267   31.1874 C   0  0  0  0  0  0  0  0  0  0  0  0
    3.2828  -11.6016   32.0914 O   0  0  0  0  0  0  0  0  0  0  0  0
    2.3417  -11.3211   29.8016 O   0  0  0  0  0  0  0  0  0  0  0  0
    1.6703   -9.4588   29.4807 C   0  0  0  0  0  0  0  0  0  0  0  0
    2.0939   -8.1913   28.5319 C   0  0  0  0  0  0  0  0  0  0  0  0
    2.6370   -8.2763   27.4428 O   0  0  0  0  0  0  0  0  0  0  0  0
    1.8154   -6.9955   29.1804 O   0  0  0  0  0  0  0  0  0  0  0  0
    2.3608   -5.7473   28.6463 C   0  0  0  0  0  0  0  0  0  0  0  0
    3.4315   -5.0243   29.5106 C   0  0  0  0  0  0  0  0  0  0  0  0
    2.7983   -3.6835   29.0964 C   0  0  0  0  0  0  0  0  0  0  0  0
    1.4884   -4.4611   28.9091 C   0  0  0  0  0  0  0  0  0  0  0  0
    4.2209  -13.6770   32.8647 C   0  0  0  0  0  0  0  0  0  0  0  0
    4.7215  -14.6780   33.7597 O   0  0  0  0  0  0  0  0  0  0  0  0
    2.7100  -20.3964   32.8559 H   0  0  0  0  0  0  0  0  0  0  0  0
    4.2285  -20.6729   33.6899 H   0  0  0  0  0  0  0  0  0  0  0  0
    2.7998  -20.1415   34.6013 H   0  0  0  0  0  0  0  0  0  0  0  0
    5.5116  -18.9415   34.6647 H   0  0  0  0  0  0  0  0  0  0  0  0
    6.0204  -16.5321   34.7885 H   0  0  0  0  0  0  0  0  0  0  0  0
    2.0581  -17.9932   32.2523 H   0  0  0  0  0  0  0  0  0  0  0  0
    2.3065  -15.8562   30.8918 H   0  0  0  0  0  0  0  0  0  0  0  0
    0.6609   -9.6954   29.0496 H   0  0  0  0  0  0  0  0  0  0  0  0
    1.3119   -8.8726   30.3674 H   0  0  0  0  0  0  0  0  0  0  0  0
    2.6654   -5.8309   27.5944 H   0  0  0  0  0  0  0  0  0  0  0  0
    4.4687   -5.1698   29.1985 H   0  0  0  0  0  0  0  0  0  0  0  0
    3.3475   -5.2255   30.5841 H   0  0  0  0  0  0  0  0  0  0  0  0
    2.7865   -2.9035   29.8612 H   0  0  0  0  0  0  0  0  0  0  0  0
    3.2051   -3.2705   28.1663 H   0  0  0  0  0  0  0  0  0  0  0  0
    0.8690   -4.5222   29.8119 H   0  0  0  0  0  0  0  0  0  0  0  0
    0.8760   -4.0901   28.0863 H   0  0  0  0  0  0  0  0  0  0  0  0
    4.0030  -12.9403   33.6041 H   0  0  0  0  0  0  0  0  0  0  0  0
    5.0851  -13.2225   32.3547 H   0  0  0  0  0  0  0  0  0  0  0  0
  1  2  1  0
  2  3  2  0
  3  4  1  0
  4  5  2  0
  5  6  1  0
  6  7  2  0
  6  8  1  0
  8  9  2  0
  9 10  1  0
 10 11  2  0
 10 12  1  0
 12 13  1  0
 13 14  1  0
 14 15  2  0
 14 16  1  0
 16 17  1  0
 17 18  1  0
 18 19  1  0
 19 20  1  0
  9 21  1  0
 21 22  1  0
  7  2  1  0
 20 17  1  0
 22  5  1  0
  1 23  1  0
  1 24  1  0
  1 25  1  0
  3 26  1  0
  4 27  1  0
  7 28  1  0
  8 29  1  0
 13 30  1  0
 13 31  1  0
 17 32  1  0
 18 33  1  0
 18 34  1  0
 19 35  1  0
 19 36  1  0
 20 37  1  0
 20 38  1  0
 21 39  1  0
 21 40  1  0
M  END
>  <Energy>  (1236) 
338.70875629181711

>  <compound_id>  (1236) 
57822

>  <target_id>  (1236) 
1

>  <reference_id>  (1236) 
44

>  <inspiration_ids>  (1236) 
[89, 44]

>  <energy_score>  (1236) 
276.01762098112283

>  <distance_score>  (1236) 
7.365608335462067

>  <path>  (1236) 
/opt/xchem-fragalysis-2/maxwin/BulkDock/SCRATCH/511022/C57822-P44/C57822-P44.minimised.mol

>  <scratch_subdir>  (1236) 
/opt/xchem-fragalysis-2/maxwin/BulkDock/SCRATCH/511022/C57822-P44

>  <fragmenstein_runtime>  (1236) 
15.413768529891968

>  <fragmenstein_outcome>  (1236) 
too moved

>  <fragmenstein_mode>  (1236) 
expansion

>  <fragmenstein_error>  (1236) 


$$$$
C57825-P44
     RDKit          3D

 42 44  0  0  0  0  0  0  0  0999 V2000
    3.8781  -19.4053   33.6031 C   0  0  0  0  0  0  0  0  0  0  0  0
    4.1389  -17.9312   33.5421 C   0  0  0  0  0  0  0  0  0  0  0  0
    5.1903  -17.3490   34.2661 C   0  0  0  0  0  0  0  0  0  0  0  0
    5.3158  -15.9463   34.3518 C   0  0  0  0  0  0  0  0  0  0  0  0
    4.4276  -15.1165   33.6571 C   0  0  0  0  0  0  0  0  0  0  0  0
    3.4634  -15.6967   32.8404 C   0  0  0  0  0  0  0  0  0  0  0  0
    3.2717  -17.0914   32.8376 C   0  0  0  0  0  0  0  0  0  0  0  0
    2.8401  -14.8597   31.8150 C   0  0  0  0  0  0  0  0  0  0  0  0
    3.1270  -13.5558   31.4815 C   0  0  0  0  0  0  0  0  0  0  0  0
    2.0812  -12.3937   30.9390 C   0  0  0  0  0  0  0  0  0  0  0  0
    1.0558  -12.4758   31.5388 O   0  0  0  0  0  0  0  0  0  0  0  0
    2.4646  -11.1519   29.8153 N   0  0  0  0  0  0  0  0  0  0  0  0
    1.4667   -9.4548   29.3055 C   0  0  0  0  0  0  0  0  0  0  0  0
    2.1715   -8.3052   28.2451 C   0  0  0  0  0  0  0  0  0  0  0  0
    2.8886   -7.1472   28.7421 O   0  0  0  0  0  0  0  0  0  0  0  0
    2.1976   -5.9260   29.1675 C   0  0  0  0  0  0  0  0  0  0  0  0
    2.9774   -5.0228   30.1738 C   0  0  0  0  0  0  0  0  0  0  0  0
    2.3759   -3.7987   29.4679 C   0  0  0  0  0  0  0  0  0  0  0  0
    2.2740   -4.6838   28.2179 C   0  0  0  0  0  0  0  0  0  0  0  0
    4.3151  -13.0319   32.4304 C   0  0  0  0  0  0  0  0  0  0  0  0
    4.6120  -13.7601   33.6750 O   0  0  0  0  0  0  0  0  0  0  0  0
    3.2597  -19.7244   32.7652 H   0  0  0  0  0  0  0  0  0  0  0  0
    3.3424  -19.6470   34.5265 H   0  0  0  0  0  0  0  0  0  0  0  0
    4.8151  -19.9664   33.5882 H   0  0  0  0  0  0  0  0  0  0  0  0
    5.8781  -17.9866   34.8182 H   0  0  0  0  0  0  0  0  0  0  0  0
    6.1044  -15.4988   34.9472 H   0  0  0  0  0  0  0  0  0  0  0  0
    2.4478  -17.5100   32.2695 H   0  0  0  0  0  0  0  0  0  0  0  0
    2.4040  -15.5188   31.0685 H   0  0  0  0  0  0  0  0  0  0  0  0
    3.3284  -11.3570   29.3995 H   0  0  0  0  0  0  0  0  0  0  0  0
    1.2148   -8.8027   30.1625 H   0  0  0  0  0  0  0  0  0  0  0  0
    0.4761   -9.7343   28.9065 H   0  0  0  0  0  0  0  0  0  0  0  0
    1.5443   -7.9178   27.5116 H   0  0  0  0  0  0  0  0  0  0  0  0
    2.7745   -8.7742   27.4519 H   0  0  0  0  0  0  0  0  0  0  0  0
    1.2018   -6.1469   29.5704 H   0  0  0  0  0  0  0  0  0  0  0  0
    4.0677   -5.0861   30.0807 H   0  0  0  0  0  0  0  0  0  0  0  0
    2.7012   -5.1376   31.2252 H   0  0  0  0  0  0  0  0  0  0  0  0
    1.4059   -3.4869   29.8715 H   0  0  0  0  0  0  0  0  0  0  0  0
    3.0277   -2.9261   29.3837 H   0  0  0  0  0  0  0  0  0  0  0  0
    3.1624   -4.6678   27.5764 H   0  0  0  0  0  0  0  0  0  0  0  0
    1.3995   -4.4468   27.6215 H   0  0  0  0  0  0  0  0  0  0  0  0
    4.1734  -12.0022   32.7359 H   0  0  0  0  0  0  0  0  0  0  0  0
    5.2683  -12.9909   31.8938 H   0  0  0  0  0  0  0  0  0  0  0  0
  1  2  1  0
  2  3  2  0
  3  4  1  0
  4  5  2  0
  5  6  1  0
  6  7  2  0
  6  8  1  0
  8  9  2  0
  9 10  1  0
 10 11  2  0
 10 12  1  0
 12 13  1  0
 13 14  1  0
 14 15  1  0
 15 16  1  0
 16 17  1  0
 17 18  1  0
 18 19  1  0
  9 20  1  0
 20 21  1  0
  7  2  1  0
 19 16  1  0
 21  5  1  0
  1 22  1  0
  1 23  1  0
  1 24  1  0
  3 25  1  0
  4 26  1  0
  7 27  1  0
  8 28  1  0
 12 29  1  0
 13 30  1  0
 13 31  1  0
 14 32  1  0
 14 33  1  0
 16 34  1  0
 17 35  1  0
 17 36  1  0
 18 37  1  0
 18 38  1  0
 19 39  1  0
 19 40  1  0
 20 41  1  0
 20 42  1  0
M  END
>  <Energy>  (1237) 
240.01288409767156

>  <compound_id>  (1237) 
57825

>  <target_id>  (1237) 
1

>  <reference_id>  (1237) 
44

>  <inspiration_ids>  (1237) 
[89, 44]

>  <energy_score>  (1237) 
183.38419333298464

>  <distance_score>  (1237) 
7.854899997290955

>  <path>  (1237) 
/opt/xchem-fragalysis-2/maxwin/BulkDock/SCRATCH/511022/C57825-P44/C57825-P44.minimised.mol

>  <scratch_subdir>  (1237) 
/opt/xchem-fragalysis-2/maxwin/BulkDock/SCRATCH/511022/C57825-P44

>  <fragmenstein_runtime>  (1237) 
14.522256851196289

>  <fragmenstein_outcome>  (1237) 
too moved

>  <fragmenstein_mode>  (1237) 
expansion

>  <fragmenstein_error>  (1237) 


$$$$
C57826-P44
     RDKit          3D

 44 46  0  0  0  0  0  0  0  0999 V2000
    3.3833   -8.3434   23.9529 C   0  0  0  0  0  0  0  0  0  0  0  0
    3.0611   -8.4418   25.3439 O   0  0  0  0  0  0  0  0  0  0  0  0
    2.5878   -7.2857   25.9051 C   0  0  0  0  0  0  0  0  0  0  0  0
    2.3969   -6.2336   25.3092 O   0  0  0  0  0  0  0  0  0  0  0  0
    2.4372   -7.4988   27.4474 C   0  0  0  0  0  0  0  0  0  0  0  0
    2.5003   -8.8944   28.0826 N   0  0  0  0  0  0  0  0  0  0  0  0
    1.9027   -9.5135   29.5831 C   0  0  0  0  0  0  0  0  0  0  0  0
    1.2241   -8.8181   30.2935 O   0  0  0  0  0  0  0  0  0  0  0  0
    2.5756  -11.4977   30.1807 C   0  0  0  0  0  0  0  0  0  0  0  0
    2.2423  -12.8598   30.7731 C   0  0  0  0  0  0  0  0  0  0  0  0
    2.8606  -14.3324   31.7545 C   0  0  0  0  0  0  0  0  0  0  0  0
    2.6445  -15.7689   31.6853 C   0  0  0  0  0  0  0  0  0  0  0  0
    3.2257  -16.7435   32.5710 C   0  0  0  0  0  0  0  0  0  0  0  0
    2.8743  -18.1974   32.5661 C   0  0  0  0  0  0  0  0  0  0  0  0
    4.2005  -16.3497   33.4711 C   0  0  0  0  0  0  0  0  0  0  0  0
    4.3788  -14.9972   33.6828 C   0  0  0  0  0  0  0  0  0  0  0  0
    3.7414  -14.0865   32.8117 C   0  0  0  0  0  0  0  0  0  0  0  0
    4.2085  -12.8322   32.8711 O   0  0  0  0  0  0  0  0  0  0  0  0
    3.4467  -11.9785   31.9156 C   0  0  0  0  0  0  0  0  0  0  0  0
    2.4396   -6.1769   28.3184 C   0  0  0  0  0  0  0  0  0  0  0  0
    1.8774   -5.8203   29.7335 C   0  0  0  0  0  0  0  0  0  0  0  0
    3.0525   -4.8321   29.8803 C   0  0  0  0  0  0  0  0  0  0  0  0
    3.8186   -5.6745   28.8450 C   0  0  0  0  0  0  0  0  0  0  0  0
    4.2474   -7.6862   23.8172 H   0  0  0  0  0  0  0  0  0  0  0  0
    2.5301   -7.9807   23.3726 H   0  0  0  0  0  0  0  0  0  0  0  0
    3.6452   -9.3433   23.5965 H   0  0  0  0  0  0  0  0  0  0  0  0
    3.5483   -7.5069   27.4411 H   0  0  0  0  0  0  0  0  0  0  0  0
    2.9604   -9.6350   27.6018 H   0  0  0  0  0  0  0  0  0  0  0  0
    1.3213  -12.7015   31.3184 H   0  0  0  0  0  0  0  0  0  0  0  0
    2.0539  -16.1920   30.8791 H   0  0  0  0  0  0  0  0  0  0  0  0
    2.9249  -18.6117   33.5800 H   0  0  0  0  0  0  0  0  0  0  0  0
    3.5681  -18.7608   31.9412 H   0  0  0  0  0  0  0  0  0  0  0  0
    1.8401  -18.3111   32.2463 H   0  0  0  0  0  0  0  0  0  0  0  0
    4.7634  -17.0814   34.0450 H   0  0  0  0  0  0  0  0  0  0  0  0
    5.1052  -14.6360   34.4041 H   0  0  0  0  0  0  0  0  0  0  0  0
    3.8232  -11.1065   32.4603 H   0  0  0  0  0  0  0  0  0  0  0  0
    4.1846  -12.5801   31.3459 H   0  0  0  0  0  0  0  0  0  0  0  0
    2.0933   -5.3880   27.6265 H   0  0  0  0  0  0  0  0  0  0  0  0
    1.8857   -6.5828   30.5052 H   0  0  0  0  0  0  0  0  0  0  0  0
    0.8962   -5.3377   29.7550 H   0  0  0  0  0  0  0  0  0  0  0  0
    2.8186   -3.8187   29.5335 H   0  0  0  0  0  0  0  0  0  0  0  0
    3.5028   -4.7695   30.8737 H   0  0  0  0  0  0  0  0  0  0  0  0
    4.4120   -5.0992   28.1276 H   0  0  0  0  0  0  0  0  0  0  0  0
    4.4562   -6.4576   29.2594 H   0  0  0  0  0  0  0  0  0  0  0  0
  1  2  1  0
  2  3  1  0
  3  4  2  0
  3  5  1  0
  5  6  1  0
  6  7  1  0
  7  8  2  0
  7  9  1  0
  9 10  2  0
 10 11  1  0
 11 12  2  0
 12 13  1  0
 13 14  1  0
 13 15  2  0
 15 16  1  0
 16 17  2  0
 17 18  1  0
 18 19  1  0
  5 20  1  0
 20 21  1  0
 21 22  1  0
 22 23  1  0
 19  9  1  0
 23 20  1  0
 17 11  1  0
  1 24  1  0
  1 25  1  0
  1 26  1  0
  5 27  1  0
  6 28  1  0
 10 29  1  0
 12 30  1  0
 14 31  1  0
 14 32  1  0
 14 33  1  0
 15 34  1  0
 16 35  1  0
 19 36  1  0
 19 37  1  0
 20 38  1  0
 21 39  1  0
 21 40  1  0
 22 41  1  0
 22 42  1  0
 23 43  1  0
 23 44  1  0
M  END
>  <Energy>  (1238) 
619.4887980399925

>  <compound_id>  (1238) 
57826

>  <target_id>  (1238) 
1

>  <reference_id>  (1238) 
44

>  <inspiration_ids>  (1238) 
[89, 44]

>  <energy_score>  (1238) 
558.4334766077009

>  <distance_score>  (1238) 
8.390653987314053

>  <path>  (1238) 
/opt/xchem-fragalysis-2/maxwin/BulkDock/SCRATCH/511022/C57826-P44/C57826-P44.minimised.mol

>  <scratch_subdir>  (1238) 
/opt/xchem-fragalysis-2/maxwin/BulkDock/SCRATCH/511022/C57826-P44

>  <fragmenstein_runtime>  (1238) 
30.807685136795044

>  <fragmenstein_outcome>  (1238) 
too moved

>  <fragmenstein_mode>  (1238) 
expansion

>  <fragmenstein_error>  (1238) 


$$$$
C57827-P44
     RDKit          3D

 41 43  0  0  0  0  0  0  0  0999 V2000
   -0.5450  -15.8772   26.9229 C   0  0  0  0  0  0  0  0  0  0  0  0
    0.9911  -15.6574   27.0705 C   0  0  0  0  0  0  0  0  0  0  0  0
    1.6284  -15.4815   25.9291 C   0  0  0  0  0  0  0  0  0  0  0  0
    2.4642  -14.5895   26.3916 C   0  0  0  0  0  0  0  0  0  0  0  0
    2.5371  -14.2157   27.9814 C   0  0  0  0  0  0  0  0  0  0  0  0
    2.4365  -14.5420   29.4850 C   0  0  0  0  0  0  0  0  0  0  0  0
    1.7593  -15.4549   28.7114 C   0  0  0  0  0  0  0  0  0  0  0  0
    2.3378  -12.8137   30.4874 C   0  0  0  0  0  0  0  0  0  0  0  0
    2.5147  -11.3911   29.8164 C   0  0  0  0  0  0  0  0  0  0  0  0
    1.8875   -9.4060   29.3003 C   0  0  0  0  0  0  0  0  0  0  0  0
    0.7063   -9.3980   29.1188 O   0  0  0  0  0  0  0  0  0  0  0  0
    2.8382   -7.8420   28.9491 N   0  0  0  0  0  0  0  0  0  0  0  0
    2.3989   -6.4926   28.5629 C   0  0  0  0  0  0  0  0  0  0  0  0
    1.5144   -5.8449   29.6611 C   0  0  0  0  0  0  0  0  0  0  0  0
    1.1413   -4.3756   29.4078 C   0  0  0  0  0  0  0  0  0  0  0  0
    2.3624   -3.5071   29.1439 C   0  0  0  0  0  0  0  0  0  0  0  0
    3.2530   -4.1164   28.0698 C   0  0  0  0  0  0  0  0  0  0  0  0
    3.6356   -5.5631   28.3986 C   0  0  0  0  0  0  0  0  0  0  0  0
    3.3920  -12.4650   29.2147 C   0  0  0  0  0  0  0  0  0  0  0  0
    3.2098  -13.1168   28.0368 O   0  0  0  0  0  0  0  0  0  0  0  0
   -0.9815  -14.9952   26.4383 H   0  0  0  0  0  0  0  0  0  0  0  0
   -1.0510  -15.9954   27.8870 H   0  0  0  0  0  0  0  0  0  0  0  0
   -0.7516  -16.7488   26.2922 H   0  0  0  0  0  0  0  0  0  0  0  0
    1.3301  -15.6391   24.9149 H   0  0  0  0  0  0  0  0  0  0  0  0
    3.0459  -14.0154   25.6817 H   0  0  0  0  0  0  0  0  0  0  0  0
    2.6277  -16.1547   28.6259 H   0  0  0  0  0  0  0  0  0  0  0  0
    1.7657  -12.9204   31.3924 H   0  0  0  0  0  0  0  0  0  0  0  0
    3.8153   -7.9740   29.2414 H   0  0  0  0  0  0  0  0  0  0  0  0
    2.0393   -6.5726   27.5542 H   0  0  0  0  0  0  0  0  0  0  0  0
    2.0669   -5.8843   30.6114 H   0  0  0  0  0  0  0  0  0  0  0  0
    0.6105   -6.4329   29.8532 H   0  0  0  0  0  0  0  0  0  0  0  0
    0.4568   -4.2874   28.5608 H   0  0  0  0  0  0  0  0  0  0  0  0
    0.6020   -3.9866   30.2795 H   0  0  0  0  0  0  0  0  0  0  0  0
    2.9373   -3.3988   30.0718 H   0  0  0  0  0  0  0  0  0  0  0  0
    2.0481   -2.5012   28.8439 H   0  0  0  0  0  0  0  0  0  0  0  0
    4.1624   -3.5139   27.9648 H   0  0  0  0  0  0  0  0  0  0  0  0
    2.7416   -4.0908   27.1028 H   0  0  0  0  0  0  0  0  0  0  0  0
    4.2399   -5.5779   29.3147 H   0  0  0  0  0  0  0  0  0  0  0  0
    4.2820   -5.9569   27.6038 H   0  0  0  0  0  0  0  0  0  0  0  0
    4.2428  -12.3029   29.8155 H   0  0  0  0  0  0  0  0  0  0  0  0
    4.3345  -12.9173   28.9219 H   0  0  0  0  0  0  0  0  0  0  0  0
  1  2  1  0
  2  3  2  0
  3  4  1  0
  4  5  2  0
  5  6  1  0
  6  7  2  0
  6  8  1  0
  8  9  2  0
  9 10  1  0
 10 11  2  0
 10 12  1  0
 12 13  1  0
 13 14  1  0
 14 15  1  0
 15 16  1  0
 16 17  1  0
 17 18  1  0
  9 19  1  0
 19 20  1  0
  7  2  1  0
 18 13  1  0
 20  5  1  0
  1 21  1  0
  1 22  1  0
  1 23  1  0
  3 24  1  0
  4 25  1  0
  7 26  1  0
  8 27  1  0
 12 28  1  0
 13 29  1  0
 14 30  1  0
 14 31  1  0
 15 32  1  0
 15 33  1  0
 16 34  1  0
 16 35  1  0
 17 36  1  0
 17 37  1  0
 18 38  1  0
 18 39  1  0
 19 40  1  0
 19 41  1  0
M  END
>  <Energy>  (1239) 
815.9988369324783

>  <compound_id>  (1239) 
57827

>  <target_id>  (1239) 
1

>  <reference_id>  (1239) 
44

>  <inspiration_ids>  (1239) 
[89, 44]

>  <energy_score>  (1239) 
785.8367290602572

>  <distance_score>  (1239) 
7.995012228384758

>  <path>  (1239) 
/opt/xchem-fragalysis-2/maxwin/BulkDock/SCRATCH/511022/C57827-P44/C57827-P44.minimised.mol

>  <scratch_subdir>  (1239) 
/opt/xchem-fragalysis-2/maxwin/BulkDock/SCRATCH/511022/C57827-P44

>  <fragmenstein_runtime>  (1239) 
17.5592041015625

>  <fragmenstein_outcome>  (1239) 
too moved

>  <fragmenstein_mode>  (1239) 
expansion

>  <fragmenstein_error>  (1239) 


$$$$
C57829-P44
     RDKit          3D

 44 46  0  0  0  0  0  0  0  0999 V2000
    2.8826  -17.8755   32.5479 C   0  0  0  0  0  0  0  0  0  0  0  0
    3.1281  -16.4067   32.3769 C   0  0  0  0  0  0  0  0  0  0  0  0
    3.9295  -15.7685   33.3311 C   0  0  0  0  0  0  0  0  0  0  0  0
    4.0798  -14.3857   33.3476 C   0  0  0  0  0  0  0  0  0  0  0  0
    3.5954  -13.6993   32.2424 C   0  0  0  0  0  0  0  0  0  0  0  0
    2.9411  -14.2174   31.1377 C   0  0  0  0  0  0  0  0  0  0  0  0
    2.7306  -15.6515   31.2367 C   0  0  0  0  0  0  0  0  0  0  0  0
    2.9582  -12.7572   29.8253 C   0  0  0  0  0  0  0  0  0  0  0  0
    2.4073  -11.4311   29.9379 C   0  0  0  0  0  0  0  0  0  0  0  0
    1.7480   -9.4772   29.4314 C   0  0  0  0  0  0  0  0  0  0  0  0
    2.2341   -9.1452   28.3936 O   0  0  0  0  0  0  0  0  0  0  0  0
    0.8172   -8.5652   30.3243 N   0  0  0  0  0  0  0  0  0  0  0  0
    0.4186   -7.1499   30.1895 C   0  0  0  0  0  0  0  0  0  0  0  0
   -0.2678   -6.8448   28.8563 C   0  0  0  0  0  0  0  0  0  0  0  0
    0.0766   -5.4913   28.2191 C   0  0  0  0  0  0  0  0  0  0  0  0
    0.5336   -4.3345   29.1061 C   0  0  0  0  0  0  0  0  0  0  0  0
   -0.3111   -4.0623   30.3410 C   0  0  0  0  0  0  0  0  0  0  0  0
   -0.0358   -4.9933   31.5271 C   0  0  0  0  0  0  0  0  0  0  0  0
   -0.3002   -6.5072   31.3743 C   0  0  0  0  0  0  0  0  0  0  0  0
    2.3390  -12.1506   31.2521 C   0  0  0  0  0  0  0  0  0  0  0  0
    3.5573  -12.3571   32.1088 O   0  0  0  0  0  0  0  0  0  0  0  0
    2.9733  -18.1679   33.6003 H   0  0  0  0  0  0  0  0  0  0  0  0
    1.8560  -18.1112   32.2633 H   0  0  0  0  0  0  0  0  0  0  0  0
    3.6119  -18.4635   31.9859 H   0  0  0  0  0  0  0  0  0  0  0  0
    4.5138  -16.3678   34.0239 H   0  0  0  0  0  0  0  0  0  0  0  0
    4.6433  -13.8732   34.1160 H   0  0  0  0  0  0  0  0  0  0  0  0
    2.2745  -16.1398   30.3930 H   0  0  0  0  0  0  0  0  0  0  0  0
    3.2955  -13.1143   28.8538 H   0  0  0  0  0  0  0  0  0  0  0  0
    0.4794   -9.1126   31.0920 H   0  0  0  0  0  0  0  0  0  0  0  0
    1.4071   -6.6775   30.1333 H   0  0  0  0  0  0  0  0  0  0  0  0
   -1.3504   -6.9403   28.9702 H   0  0  0  0  0  0  0  0  0  0  0  0
   -0.0124   -7.6142   28.1185 H   0  0  0  0  0  0  0  0  0  0  0  0
    0.8774   -5.6650   27.4877 H   0  0  0  0  0  0  0  0  0  0  0  0
   -0.7836   -5.1726   27.6248 H   0  0  0  0  0  0  0  0  0  0  0  0
    0.5375   -3.4286   28.4862 H   0  0  0  0  0  0  0  0  0  0  0  0
    1.5782   -4.4889   29.4032 H   0  0  0  0  0  0  0  0  0  0  0  0
   -1.3696   -4.0400   30.0873 H   0  0  0  0  0  0  0  0  0  0  0  0
   -0.0758   -3.0445   30.6807 H   0  0  0  0  0  0  0  0  0  0  0  0
    1.0133   -4.8639   31.8254 H   0  0  0  0  0  0  0  0  0  0  0  0
   -0.6308   -4.6393   32.3788 H   0  0  0  0  0  0  0  0  0  0  0  0
    0.0391   -6.9904   32.3001 H   0  0  0  0  0  0  0  0  0  0  0  0
   -1.3768   -6.7014   31.3209 H   0  0  0  0  0  0  0  0  0  0  0  0
    1.6263  -12.9493   31.1530 H   0  0  0  0  0  0  0  0  0  0  0  0
    1.4209  -12.1299   31.7802 H   0  0  0  0  0  0  0  0  0  0  0  0
  1  2  1  0
  2  3  2  0
  3  4  1  0
  4  5  2  0
  5  6  1  0
  6  7  2  0
  6  8  1  0
  8  9  2  0
  9 10  1  0
 10 11  2  0
 10 12  1  0
 12 13  1  0
 13 14  1  0
 14 15  1  0
 15 16  1  0
 16 17  1  0
 17 18  1  0
 18 19  1  0
  9 20  1  0
 20 21  1  0
  7  2  1  0
 19 13  1  0
 21  5  1  0
  1 22  1  0
  1 23  1  0
  1 24  1  0
  3 25  1  0
  4 26  1  0
  7 27  1  0
  8 28  1  0
 12 29  1  0
 13 30  1  0
 14 31  1  0
 14 32  1  0
 15 33  1  0
 15 34  1  0
 16 35  1  0
 16 36  1  0
 17 37  1  0
 17 38  1  0
 18 39  1  0
 18 40  1  0
 19 41  1  0
 19 42  1  0
 20 43  1  0
 20 44  1  0
M  END
>  <Energy>  (1240) 
443.91736709640378

>  <compound_id>  (1240) 
57829

>  <target_id>  (1240) 
1

>  <reference_id>  (1240) 
44

>  <inspiration_ids>  (1240) 
[89, 44]

>  <energy_score>  (1240) 
399.55865960120525

>  <distance_score>  (1240) 
8.011456080923924

>  <path>  (1240) 
/opt/xchem-fragalysis-2/maxwin/BulkDock/SCRATCH/511022/C57829-P44/C57829-P44.minimised.mol

>  <scratch_subdir>  (1240) 
/opt/xchem-fragalysis-2/maxwin/BulkDock/SCRATCH/511022/C57829-P44

>  <fragmenstein_runtime>  (1240) 
21.023441314697266

>  <fragmenstein_outcome>  (1240) 
too moved

>  <fragmenstein_mode>  (1240) 
expansion

>  <fragmenstein_error>  (1240) 


$$$$
C57830-P44
     RDKit          3D

 36 38  0  0  0  0  0  0  0  0999 V2000
   -1.8370  -17.5408   36.9784 C   0  0  0  0  0  0  0  0  0  0  0  0
   -0.9050  -17.9817   36.1328 C   0  0  0  0  0  0  0  0  0  0  0  0
   -0.1227  -17.2200   35.1090 C   0  0  0  0  0  0  0  0  0  0  0  0
    0.9542  -18.3496   35.3934 C   0  0  0  0  0  0  0  0  0  0  0  0
    1.9314  -18.3081   34.3089 N   0  0  0  0  0  0  0  0  0  0  0  0
    3.1902  -19.0158   34.1315 C   0  0  0  0  0  0  0  0  0  0  0  0
    3.7811  -19.7493   34.8632 O   0  0  0  0  0  0  0  0  0  0  0  0
    3.7039  -18.8120   32.7601 C   0  0  0  0  0  0  0  0  0  0  0  0
    2.7518  -19.0922   31.9202 C   0  0  0  0  0  0  0  0  0  0  0  0
    3.0113  -19.6469   30.5715 C   0  0  0  0  0  0  0  0  0  0  0  0
    1.8469  -20.6672   29.6643 C   0  0  0  0  0  0  0  0  0  0  0  0
    1.6256  -21.7623   28.3832 C   0  0  0  0  0  0  0  0  0  0  0  0
    2.1346  -22.8539   29.8092 C   0  0  0  0  0  0  0  0  0  0  0  0
    2.9937  -21.3073   27.2325 C   0  0  0  0  0  0  0  0  0  0  0  0
    4.0258  -19.7610   27.8420 C   0  0  0  0  0  0  0  0  0  0  0  0
    4.2591  -19.2294   29.6293 C   0  0  0  0  0  0  0  0  0  0  0  0
    5.2147  -18.8501   30.6251 O   0  0  0  0  0  0  0  0  0  0  0  0
    5.0452  -18.7479   32.2122 C   0  0  0  0  0  0  0  0  0  0  0  0
   -0.2397  -19.2794   35.6630 C   0  0  0  0  0  0  0  0  0  0  0  0
   -2.4557  -18.1887   37.5705 H   0  0  0  0  0  0  0  0  0  0  0  0
   -2.0642  -16.4788   37.0118 H   0  0  0  0  0  0  0  0  0  0  0  0
    0.0669  -16.1702   35.3097 H   0  0  0  0  0  0  0  0  0  0  0  0
   -0.5229  -17.2555   34.0858 H   0  0  0  0  0  0  0  0  0  0  0  0
    1.5642  -18.4684   36.2852 H   0  0  0  0  0  0  0  0  0  0  0  0
    1.7734  -17.7051   33.5089 H   0  0  0  0  0  0  0  0  0  0  0  0
    1.7328  -18.8922   32.1464 H   0  0  0  0  0  0  0  0  0  0  0  0
    1.1739  -19.8671   29.6794 H   0  0  0  0  0  0  0  0  0  0  0  0
    1.9669  -22.4187   30.7982 H   0  0  0  0  0  0  0  0  0  0  0  0
    1.5917  -23.7362   30.0006 H   0  0  0  0  0  0  0  0  0  0  0  0
    3.1910  -23.0651   29.8464 H   0  0  0  0  0  0  0  0  0  0  0  0
    3.1893  -21.8530   26.3227 H   0  0  0  0  0  0  0  0  0  0  0  0
    4.8187  -19.5759   27.1393 H   0  0  0  0  0  0  0  0  0  0  0  0
    5.3357  -17.7519   32.5488 H   0  0  0  0  0  0  0  0  0  0  0  0
    5.7879  -19.3668   32.7143 H   0  0  0  0  0  0  0  0  0  0  0  0
   -0.7961  -19.7425   34.8663 H   0  0  0  0  0  0  0  0  0  0  0  0
    0.0579  -20.0466   36.3680 H   0  0  0  0  0  0  0  0  0  0  0  0
  1  2  2  0
  2  3  1  0
  3  4  1  0
  4  5  1  0
  5  6  1  0
  6  7  2  0
  6  8  1  0
  8  9  2  0
  9 10  1  0
 10 11  2  0
 11 12  1  0
 12 13  1  0
 12 14  2  0
 14 15  1  0
 15 16  2  0
 16 17  1  0
 17 18  1  0
  4 19  1  0
 19  2  1  0
 18  8  1  0
 16 10  1  0
  1 20  1  0
  1 21  1  0
  3 22  1  0
  3 23  1  0
  4 24  1  0
  5 25  1  0
  9 26  1  0
 11 27  1  0
 13 28  1  0
 13 29  1  0
 13 30  1  0
 14 31  1  0
 15 32  1  0
 18 33  1  0
 18 34  1  0
 19 35  1  0
 19 36  1  0
M  END
>  <Energy>  (1241) 
561.89911815791413

>  <compound_id>  (1241) 
57830

>  <target_id>  (1241) 
1

>  <reference_id>  (1241) 
44

>  <inspiration_ids>  (1241) 
[89, 44]

>  <energy_score>  (1241) 
506.71499355520723

>  <distance_score>  (1241) 
1.5889461978304442

>  <path>  (1241) 
/opt/xchem-fragalysis-2/maxwin/BulkDock/SCRATCH/511022/C57830-P44/C57830-P44.minimised.mol

>  <scratch_subdir>  (1241) 
/opt/xchem-fragalysis-2/maxwin/BulkDock/SCRATCH/511022/C57830-P44

>  <fragmenstein_runtime>  (1241) 
11.60839319229126

>  <fragmenstein_outcome>  (1241) 
too moved

>  <fragmenstein_mode>  (1241) 
expansion

>  <fragmenstein_error>  (1241) 


$$$$
C57831-P44
     RDKit          3D

 38 40  0  0  0  0  0  0  0  0999 V2000
    4.3482  -19.4962   27.0701 C   0  0  0  0  0  0  0  0  0  0  0  0
    4.2195  -18.4686   28.2013 C   0  0  0  0  0  0  0  0  0  0  0  0
    4.3404  -18.5306   30.0718 C   0  0  0  0  0  0  0  0  0  0  0  0
    3.5830  -17.1297   31.0312 C   0  0  0  0  0  0  0  0  0  0  0  0
    2.7085  -15.6358   30.6180 C   0  0  0  0  0  0  0  0  0  0  0  0
    2.5680  -15.1953   29.0661 C   0  0  0  0  0  0  0  0  0  0  0  0
    3.1302  -16.6811   27.9532 C   0  0  0  0  0  0  0  0  0  0  0  0
    3.0656  -13.2016   29.0295 C   0  0  0  0  0  0  0  0  0  0  0  0
    2.4308  -11.7287   29.7845 C   0  0  0  0  0  0  0  0  0  0  0  0
    1.7983   -9.6475   29.5067 C   0  0  0  0  0  0  0  0  0  0  0  0
    2.2696   -9.2094   28.5006 O   0  0  0  0  0  0  0  0  0  0  0  0
    0.7638   -8.6732   30.4893 N   0  0  0  0  0  0  0  0  0  0  0  0
    0.3755   -7.2690   30.3965 C   0  0  0  0  0  0  0  0  0  0  0  0
   -1.1110   -6.9458   30.3400 C   0  0  0  0  0  0  0  0  0  0  0  0
   -1.1923   -5.4395   30.6053 C   0  0  0  0  0  0  0  0  0  0  0  0
    0.0589   -5.0978   31.4137 C   0  0  0  0  0  0  0  0  0  0  0  0
    0.7867   -6.4291   31.6179 C   0  0  0  0  0  0  0  0  0  0  0  0
    2.4640  -12.7989   31.2054 C   0  0  0  0  0  0  0  0  0  0  0  0
    2.8868  -14.4017   31.5226 O   0  0  0  0  0  0  0  0  0  0  0  0
    3.8344  -20.4135   27.0257 H   0  0  0  0  0  0  0  0  0  0  0  0
    5.3378  -19.8556   26.8547 H   0  0  0  0  0  0  0  0  0  0  0  0
    3.8627  -19.1491   26.1587 H   0  0  0  0  0  0  0  0  0  0  0  0
    4.9615  -19.1287   30.6873 H   0  0  0  0  0  0  0  0  0  0  0  0
    3.8100  -16.7002   30.0646 H   0  0  0  0  0  0  0  0  0  0  0  0
    2.7323  -16.4504   26.9153 H   0  0  0  0  0  0  0  0  0  0  0  0
    3.1568  -13.2403   27.9610 H   0  0  0  0  0  0  0  0  0  0  0  0
    0.4070   -9.2423   31.2304 H   0  0  0  0  0  0  0  0  0  0  0  0
    0.9603   -6.8347   29.5896 H   0  0  0  0  0  0  0  0  0  0  0  0
   -1.5851   -7.2170   29.3993 H   0  0  0  0  0  0  0  0  0  0  0  0
   -1.6404   -7.4837   31.1370 H   0  0  0  0  0  0  0  0  0  0  0  0
   -2.1094   -5.1839   31.1456 H   0  0  0  0  0  0  0  0  0  0  0  0
   -1.1952   -4.8758   29.6665 H   0  0  0  0  0  0  0  0  0  0  0  0
    0.6894   -4.4022   30.8482 H   0  0  0  0  0  0  0  0  0  0  0  0
   -0.1850   -4.6244   32.3698 H   0  0  0  0  0  0  0  0  0  0  0  0
    1.8702   -6.2931   31.6895 H   0  0  0  0  0  0  0  0  0  0  0  0
    0.4526   -6.9096   32.5463 H   0  0  0  0  0  0  0  0  0  0  0  0
    1.4935  -12.7360   31.6407 H   0  0  0  0  0  0  0  0  0  0  0  0
    3.2550  -12.3851   31.7995 H   0  0  0  0  0  0  0  0  0  0  0  0
  1  2  1  0
  2  3  2  0
  3  4  1  0
  4  5  2  0
  5  6  1  0
  6  7  2  0
  6  8  1  0
  8  9  2  0
  9 10  1  0
 10 11  2  0
 10 12  1  0
 12 13  1  0
 13 14  1  0
 14 15  1  0
 15 16  1  0
 16 17  1  0
  9 18  1  0
 18 19  1  0
  7  2  1  0
 17 13  1  0
 19  5  1  0
  1 20  1  0
  1 21  1  0
  1 22  1  0
  3 23  1  0
  4 24  1  0
  7 25  1  0
  8 26  1  0
 12 27  1  0
 13 28  1  0
 14 29  1  0
 14 30  1  0
 15 31  1  0
 15 32  1  0
 16 33  1  0
 16 34  1  0
 17 35  1  0
 17 36  1  0
 18 37  1  0
 18 38  1  0
M  END
>  <Energy>  (1242) 
1073.4068003311127

>  <compound_id>  (1242) 
57831

>  <target_id>  (1242) 
1

>  <reference_id>  (1242) 
44

>  <inspiration_ids>  (1242) 
[89, 44]

>  <energy_score>  (1242) 
1045.4823035041709

>  <distance_score>  (1242) 
7.6388325394481615

>  <path>  (1242) 
/opt/xchem-fragalysis-2/maxwin/BulkDock/SCRATCH/511022/C57831-P44/C57831-P44.minimised.mol

>  <scratch_subdir>  (1242) 
/opt/xchem-fragalysis-2/maxwin/BulkDock/SCRATCH/511022/C57831-P44

>  <fragmenstein_runtime>  (1242) 
12.534575700759888

>  <fragmenstein_outcome>  (1242) 
too moved

>  <fragmenstein_mode>  (1242) 
expansion

>  <fragmenstein_error>  (1242) 


$$$$
C57832-P44
     RDKit          3D

 39 41  0  0  0  0  0  0  0  0999 V2000
    1.2271  -17.2018   33.3954 C   0  0  0  0  0  0  0  0  0  0  0  0
    2.4555  -16.7764   32.6300 C   0  0  0  0  0  0  0  0  0  0  0  0
    3.3149  -17.7718   32.2142 C   0  0  0  0  0  0  0  0  0  0  0  0
    4.0560  -17.5524   31.0497 C   0  0  0  0  0  0  0  0  0  0  0  0
    4.0600  -16.1931   29.9890 C   0  0  0  0  0  0  0  0  0  0  0  0
    2.9858  -14.9913   30.8645 C   0  0  0  0  0  0  0  0  0  0  0  0
    2.5109  -15.4338   32.1620 C   0  0  0  0  0  0  0  0  0  0  0  0
    2.7246  -13.1036   30.6354 C   0  0  0  0  0  0  0  0  0  0  0  0
    3.2580  -11.9769   29.7100 C   0  0  0  0  0  0  0  0  0  0  0  0
    2.2710   -9.9281   29.5477 C   0  0  0  0  0  0  0  0  0  0  0  0
    2.4594   -9.5045   28.4667 O   0  0  0  0  0  0  0  0  0  0  0  0
    1.1254   -8.7426   30.4499 N   0  0  0  0  0  0  0  0  0  0  0  0
    0.4388   -7.5890   30.0472 O   0  0  0  0  0  0  0  0  0  0  0  0
    0.7127   -6.4103   30.8210 C   0  0  0  0  0  0  0  0  0  0  0  0
    1.7434   -5.4938   30.1420 C   0  0  0  0  0  0  0  0  0  0  0  0
    1.2213   -4.0732   30.3220 C   0  0  0  0  0  0  0  0  0  0  0  0
   -0.2786   -4.2343   30.1819 C   0  0  0  0  0  0  0  0  0  0  0  0
   -0.5729   -5.5527   30.8958 C   0  0  0  0  0  0  0  0  0  0  0  0
    5.1201  -13.1174   29.1133 C   0  0  0  0  0  0  0  0  0  0  0  0
    5.9672  -15.1077   29.3446 O   0  0  0  0  0  0  0  0  0  0  0  0
    0.5117  -17.6383   32.6928 H   0  0  0  0  0  0  0  0  0  0  0  0
    1.4732  -17.9296   34.1732 H   0  0  0  0  0  0  0  0  0  0  0  0
    0.7155  -16.3524   33.8589 H   0  0  0  0  0  0  0  0  0  0  0  0
    3.2956  -18.7617   32.6601 H   0  0  0  0  0  0  0  0  0  0  0  0
    4.6072  -18.4557   30.7435 H   0  0  0  0  0  0  0  0  0  0  0  0
    1.9422  -14.7348   32.7595 H   0  0  0  0  0  0  0  0  0  0  0  0
    1.9386  -12.8197   31.3153 H   0  0  0  0  0  0  0  0  0  0  0  0
    0.9107   -9.1418   31.2941 H   0  0  0  0  0  0  0  0  0  0  0  0
    1.0283   -6.6887   31.8341 H   0  0  0  0  0  0  0  0  0  0  0  0
    1.8553   -5.7363   29.0810 H   0  0  0  0  0  0  0  0  0  0  0  0
    2.7316   -5.6048   30.5972 H   0  0  0  0  0  0  0  0  0  0  0  0
    1.6391   -3.3809   29.5856 H   0  0  0  0  0  0  0  0  0  0  0  0
    1.4720   -3.7039   31.3233 H   0  0  0  0  0  0  0  0  0  0  0  0
   -0.5563   -4.3031   29.1257 H   0  0  0  0  0  0  0  0  0  0  0  0
   -0.8308   -3.3969   30.6183 H   0  0  0  0  0  0  0  0  0  0  0  0
   -1.4478   -6.0528   30.4676 H   0  0  0  0  0  0  0  0  0  0  0  0
   -0.7953   -5.3422   31.9492 H   0  0  0  0  0  0  0  0  0  0  0  0
    5.8885  -12.6513   29.7585 H   0  0  0  0  0  0  0  0  0  0  0  0
    5.3796  -13.1412   28.0134 H   0  0  0  0  0  0  0  0  0  0  0  0
  1  2  1  0
  2  3  2  0
  3  4  1  0
  4  5  2  0
  5  6  1  0
  6  7  2  0
  6  8  1  0
  8  9  2  0
  9 10  1  0
 10 11  2  0
 10 12  1  0
 12 13  1  0
 13 14  1  0
 14 15  1  0
 15 16  1  0
 16 17  1  0
 17 18  1  0
  9 19  1  0
 19 20  1  0
  7  2  1  0
 18 14  1  0
 20  5  1  0
  1 21  1  0
  1 22  1  0
  1 23  1  0
  3 24  1  0
  4 25  1  0
  7 26  1  0
  8 27  1  0
 12 28  1  0
 14 29  1  0
 15 30  1  0
 15 31  1  0
 16 32  1  0
 16 33  1  0
 17 34  1  0
 17 35  1  0
 18 36  1  0
 18 37  1  0
 19 38  1  0
 19 39  1  0
M  END
>  <Energy>  (1243) 
1390.8417499433949

>  <compound_id>  (1243) 
57832

>  <target_id>  (1243) 
1

>  <reference_id>  (1243) 
44

>  <inspiration_ids>  (1243) 
[89, 44]

>  <energy_score>  (1243) 
1292.7377193006075

>  <distance_score>  (1243) 
7.294575947336056

>  <path>  (1243) 
/opt/xchem-fragalysis-2/maxwin/BulkDock/SCRATCH/511022/C57832-P44/C57832-P44.minimised.mol

>  <scratch_subdir>  (1243) 
/opt/xchem-fragalysis-2/maxwin/BulkDock/SCRATCH/511022/C57832-P44

>  <fragmenstein_runtime>  (1243) 
18.164533376693726

>  <fragmenstein_outcome>  (1243) 
too moved

>  <fragmenstein_mode>  (1243) 
expansion

>  <fragmenstein_error>  (1243) 


$$$$
C57833-P44
     RDKit          3D

 47 49  0  0  0  0  0  0  0  0999 V2000
    3.7209  -18.8654   33.1322 C   0  0  0  0  0  0  0  0  0  0  0  0
    4.0176  -17.4039   33.2795 C   0  0  0  0  0  0  0  0  0  0  0  0
    5.0944  -16.9636   34.0721 C   0  0  0  0  0  0  0  0  0  0  0  0
    5.3037  -15.5858   34.3033 C   0  0  0  0  0  0  0  0  0  0  0  0
    4.4898  -14.6369   33.6709 C   0  0  0  0  0  0  0  0  0  0  0  0
    3.4738  -15.0653   32.8294 C   0  0  0  0  0  0  0  0  0  0  0  0
    3.1880  -16.4419   32.6821 C   0  0  0  0  0  0  0  0  0  0  0  0
    2.8669  -14.0687   31.9151 C   0  0  0  0  0  0  0  0  0  0  0  0
    3.2000  -12.7488   31.6335 C   0  0  0  0  0  0  0  0  0  0  0  0
    2.8015  -11.9011   30.1559 C   0  0  0  0  0  0  0  0  0  0  0  0
    3.1454  -12.5788   29.1852 O   0  0  0  0  0  0  0  0  0  0  0  0
    2.1995  -10.3034   29.6029 O   0  0  0  0  0  0  0  0  0  0  0  0
    1.2254   -8.7596   29.8730 C   0  0  0  0  0  0  0  0  0  0  0  0
    0.8662   -8.0913   31.5044 C   0  0  0  0  0  0  0  0  0  0  0  0
   -0.0158   -7.8721   29.5744 C   0  0  0  0  0  0  0  0  0  0  0  0
   -1.1415   -8.2360   29.3449 O   0  0  0  0  0  0  0  0  0  0  0  0
    0.5871   -6.3668   29.7638 N   0  0  0  0  0  0  0  0  0  0  0  0
   -0.1048   -5.0402   29.8039 C   0  0  0  0  0  0  0  0  0  0  0  0
    0.7550   -3.9109   29.2050 C   0  0  0  0  0  0  0  0  0  0  0  0
    0.0506   -2.6316   29.6466 C   0  0  0  0  0  0  0  0  0  0  0  0
   -0.6160   -2.9862   30.9755 C   0  0  0  0  0  0  0  0  0  0  0  0
   -0.3403   -4.4787   31.2036 C   0  0  0  0  0  0  0  0  0  0  0  0
    4.5968  -12.5504   32.4812 C   0  0  0  0  0  0  0  0  0  0  0  0
    4.8009  -13.3117   33.7322 O   0  0  0  0  0  0  0  0  0  0  0  0
    3.0851  -19.1987   33.9579 H   0  0  0  0  0  0  0  0  0  0  0  0
    4.6452  -19.4474   33.1487 H   0  0  0  0  0  0  0  0  0  0  0  0
    3.2066  -19.0625   32.1930 H   0  0  0  0  0  0  0  0  0  0  0  0
    5.7501  -17.6946   34.5411 H   0  0  0  0  0  0  0  0  0  0  0  0
    6.1314  -15.2531   34.9209 H   0  0  0  0  0  0  0  0  0  0  0  0
    2.3708  -16.7424   32.0301 H   0  0  0  0  0  0  0  0  0  0  0  0
    1.8600  -14.2333   32.2303 H   0  0  0  0  0  0  0  0  0  0  0  0
    1.8734   -8.1923   29.1876 H   0  0  0  0  0  0  0  0  0  0  0  0
    0.1162   -7.2870   31.5922 H   0  0  0  0  0  0  0  0  0  0  0  0
    1.7166   -7.6109   31.9949 H   0  0  0  0  0  0  0  0  0  0  0  0
    0.2910   -8.7840   32.1233 H   0  0  0  0  0  0  0  0  0  0  0  0
    1.5945   -6.4124   29.8655 H   0  0  0  0  0  0  0  0  0  0  0  0
   -1.0397   -5.0738   29.2583 H   0  0  0  0  0  0  0  0  0  0  0  0
    1.7707   -3.9428   29.6203 H   0  0  0  0  0  0  0  0  0  0  0  0
    0.8513   -3.9642   28.1199 H   0  0  0  0  0  0  0  0  0  0  0  0
    0.7517   -1.7975   29.7459 H   0  0  0  0  0  0  0  0  0  0  0  0
   -0.7113   -2.3435   28.9130 H   0  0  0  0  0  0  0  0  0  0  0  0
   -1.6944   -2.8008   30.9137 H   0  0  0  0  0  0  0  0  0  0  0  0
   -0.2241   -2.3843   31.8015 H   0  0  0  0  0  0  0  0  0  0  0  0
    0.5583   -4.6000   31.8221 H   0  0  0  0  0  0  0  0  0  0  0  0
   -1.1602   -4.9757   31.7266 H   0  0  0  0  0  0  0  0  0  0  0  0
    4.6607  -11.5221   32.8554 H   0  0  0  0  0  0  0  0  0  0  0  0
    5.4802  -12.7530   31.8683 H   0  0  0  0  0  0  0  0  0  0  0  0
  1  2  1  0
  2  3  2  0
  3  4  1  0
  4  5  2  0
  5  6  1  0
  6  7  2  0
  6  8  1  0
  8  9  2  0
  9 10  1  0
 10 11  2  0
 10 12  1  0
 12 13  1  0
 13 14  1  0
 13 15  1  0
 15 16  2  0
 15 17  1  0
 17 18  1  0
 18 19  1  0
 19 20  1  0
 20 21  1  0
 21 22  1  0
  9 23  1  0
 23 24  1  0
  7  2  1  0
 22 18  1  0
 24  5  1  0
  1 25  1  0
  1 26  1  0
  1 27  1  0
  3 28  1  0
  4 29  1  0
  7 30  1  0
  8 31  1  0
 13 32  1  0
 14 33  1  0
 14 34  1  0
 14 35  1  0
 17 36  1  0
 18 37  1  0
 19 38  1  0
 19 39  1  0
 20 40  1  0
 20 41  1  0
 21 42  1  0
 21 43  1  0
 22 44  1  0
 22 45  1  0
 23 46  1  0
 23 47  1  0
M  END
>  <Energy>  (1244) 
404.45403578419558

>  <compound_id>  (1244) 
57833

>  <target_id>  (1244) 
1

>  <reference_id>  (1244) 
44

>  <inspiration_ids>  (1244) 
[89, 44]

>  <energy_score>  (1244) 
349.1558623268992

>  <distance_score>  (1244) 
7.439361338809372

>  <path>  (1244) 
/opt/xchem-fragalysis-2/maxwin/BulkDock/SCRATCH/511022/C57833-P44/C57833-P44.minimised.mol

>  <scratch_subdir>  (1244) 
/opt/xchem-fragalysis-2/maxwin/BulkDock/SCRATCH/511022/C57833-P44

>  <fragmenstein_runtime>  (1244) 
22.068248987197876

>  <fragmenstein_outcome>  (1244) 
too moved

>  <fragmenstein_mode>  (1244) 
expansion

>  <fragmenstein_error>  (1244) 


$$$$
C57834-P44
     RDKit          3D

 39 42  0  0  0  0  0  0  0  0999 V2000
    3.1508  -19.1188   24.9922 C   0  0  0  0  0  0  0  0  0  0  0  0
    2.6775  -17.4984   24.9611 C   0  0  0  0  0  0  0  0  0  0  0  0
    2.7757  -16.6404   23.8731 C   0  0  0  0  0  0  0  0  0  0  0  0
    1.8848  -15.6202   23.8921 C   0  0  0  0  0  0  0  0  0  0  0  0
    1.4392  -15.2324   25.1559 C   0  0  0  0  0  0  0  0  0  0  0  0
    1.8802  -15.7120   26.3551 C   0  0  0  0  0  0  0  0  0  0  0  0
    2.2922  -16.9460   26.1361 C   0  0  0  0  0  0  0  0  0  0  0  0
    2.1912  -14.8977   27.6366 C   0  0  0  0  0  0  0  0  0  0  0  0
    2.5694  -13.5432   27.6201 C   0  0  0  0  0  0  0  0  0  0  0  0
    2.8044  -12.3122   29.1334 C   0  0  0  0  0  0  0  0  0  0  0  0
    2.5982  -10.8821   29.6242 N   0  0  0  0  0  0  0  0  0  0  0  0
    1.6243   -9.3172   29.3789 C   0  0  0  0  0  0  0  0  0  0  0  0
    1.1492   -7.8599   29.9230 C   0  0  0  0  0  0  0  0  0  0  0  0
    0.7621   -7.4446   31.3506 C   0  0  0  0  0  0  0  0  0  0  0  0
    0.2941   -5.9858   31.1810 C   0  0  0  0  0  0  0  0  0  0  0  0
    1.1683   -5.3825   30.0837 C   0  0  0  0  0  0  0  0  0  0  0  0
    1.9240   -6.5654   29.4588 C   0  0  0  0  0  0  0  0  0  0  0  0
    0.6540  -10.0388   28.8705 N   0  0  0  0  0  0  0  0  0  0  0  0
    1.2568  -11.6827   29.6082 O   0  0  0  0  0  0  0  0  0  0  0  0
    2.3346  -13.5215   25.7109 C   0  0  0  0  0  0  0  0  0  0  0  0
    1.0524  -13.9815   25.2331 O   0  0  0  0  0  0  0  0  0  0  0  0
    3.8239  -19.0969   25.8634 H   0  0  0  0  0  0  0  0  0  0  0  0
    3.3786  -19.4211   23.9588 H   0  0  0  0  0  0  0  0  0  0  0  0
    3.0702  -20.0876   25.4315 H   0  0  0  0  0  0  0  0  0  0  0  0
    3.3089  -16.9058   22.9632 H   0  0  0  0  0  0  0  0  0  0  0  0
    1.6935  -15.0006   23.0225 H   0  0  0  0  0  0  0  0  0  0  0  0
    2.5024  -17.5706   26.9387 H   0  0  0  0  0  0  0  0  0  0  0  0
    2.1490  -15.4090   28.5897 H   0  0  0  0  0  0  0  0  0  0  0  0
    0.1268   -7.8544   29.5224 H   0  0  0  0  0  0  0  0  0  0  0  0
   -0.0306   -8.0683   31.7756 H   0  0  0  0  0  0  0  0  0  0  0  0
    1.5997   -7.4251   32.0488 H   0  0  0  0  0  0  0  0  0  0  0  0
   -0.7548   -5.9720   30.8711 H   0  0  0  0  0  0  0  0  0  0  0  0
    0.3667   -5.4266   32.1190 H   0  0  0  0  0  0  0  0  0  0  0  0
    1.8761   -4.6580   30.5018 H   0  0  0  0  0  0  0  0  0  0  0  0
    0.5552   -4.8479   29.3533 H   0  0  0  0  0  0  0  0  0  0  0  0
    2.0790   -6.4762   28.3830 H   0  0  0  0  0  0  0  0  0  0  0  0
    2.9434   -6.5009   29.8474 H   0  0  0  0  0  0  0  0  0  0  0  0
    3.2615  -13.9876   25.2835 H   0  0  0  0  0  0  0  0  0  0  0  0
    2.2154  -12.5938   25.0940 H   0  0  0  0  0  0  0  0  0  0  0  0
  1  2  1  0
  2  3  2  0
  3  4  1  0
  4  5  2  0
  5  6  1  0
  6  7  2  0
  6  8  1  0
  8  9  2  0
  9 10  1  0
 10 11  2  0
 11 12  1  0
 12 13  1  0
 13 14  1  0
 14 15  1  0
 15 16  1  0
 16 17  1  0
 12 18  2  0
 18 19  1  0
  9 20  1  0
 20 21  1  0
  7  2  1  0
 19 10  1  0
 21  5  1  0
 17 13  1  0
  1 22  1  0
  1 23  1  0
  1 24  1  0
  3 25  1  0
  4 26  1  0
  7 27  1  0
  8 28  1  0
 13 29  1  0
 14 30  1  0
 14 31  1  0
 15 32  1  0
 15 33  1  0
 16 34  1  0
 16 35  1  0
 17 36  1  0
 17 37  1  0
 20 38  1  0
 20 39  1  0
M  END
>  <Energy>  (1245) 
723.24937342536202

>  <compound_id>  (1245) 
57834

>  <target_id>  (1245) 
1

>  <reference_id>  (1245) 
44

>  <inspiration_ids>  (1245) 
[89, 44]

>  <energy_score>  (1245) 
654.1948726023317

>  <distance_score>  (1245) 
8.744651300484806

>  <path>  (1245) 
/opt/xchem-fragalysis-2/maxwin/BulkDock/SCRATCH/511022/C57834-P44/C57834-P44.minimised.mol

>  <scratch_subdir>  (1245) 
/opt/xchem-fragalysis-2/maxwin/BulkDock/SCRATCH/511022/C57834-P44

>  <fragmenstein_runtime>  (1245) 
15.433359861373901

>  <fragmenstein_outcome>  (1245) 
too moved

>  <fragmenstein_mode>  (1245) 
expansion

>  <fragmenstein_error>  (1245) 


$$$$
C57835-P44
     RDKit          3D

 49 51  0  0  0  0  0  0  0  0999 V2000
    4.0535  -17.0321   33.1709 C   0  0  0  0  0  0  0  0  0  0  0  0
    4.7632  -15.9054   33.9212 C   0  0  0  0  0  0  0  0  0  0  0  0
    5.6741  -16.2192   34.9240 C   0  0  0  0  0  0  0  0  0  0  0  0
    6.3039  -15.1931   35.6440 C   0  0  0  0  0  0  0  0  0  0  0  0
    6.0789  -13.8467   35.3358 C   0  0  0  0  0  0  0  0  0  0  0  0
    5.2215  -13.4937   34.3084 C   0  0  0  0  0  0  0  0  0  0  0  0
    4.4896  -14.5260   33.6859 C   0  0  0  0  0  0  0  0  0  0  0  0
    5.1405  -12.0571   33.9479 C   0  0  0  0  0  0  0  0  0  0  0  0
    5.4150  -11.1147   34.8783 C   0  0  0  0  0  0  0  0  0  0  0  0
    5.3790   -9.5814   34.6433 C   0  0  0  0  0  0  0  0  0  0  0  0
    6.4328   -9.1223   34.2974 O   0  0  0  0  0  0  0  0  0  0  0  0
    4.0868   -8.9225   34.9096 N   0  0  0  0  0  0  0  0  0  0  0  0
    3.7005   -7.4268   34.9295 C   0  0  0  0  0  0  0  0  0  0  0  0
    2.4570   -6.9021   34.0420 C   0  0  0  0  0  0  0  0  0  0  0  0
    2.1280   -5.4337   33.8437 N   0  0  0  0  0  0  0  0  0  0  0  0
    0.7715   -5.3391   33.2318 C   0  0  0  0  0  0  0  0  0  0  0  0
    0.1925   -3.9517   32.8824 C   0  0  0  0  0  0  0  0  0  0  0  0
    0.7955   -3.3274   31.6286 C   0  0  0  0  0  0  0  0  0  0  0  0
    2.1239   -2.6264   31.8638 C   0  0  0  0  0  0  0  0  0  0  0  0
    3.0021   -3.2074   32.9745 C   0  0  0  0  0  0  0  0  0  0  0  0
    3.1377   -4.7430   33.0112 C   0  0  0  0  0  0  0  0  0  0  0  0
    6.1010  -11.5889   36.1393 C   0  0  0  0  0  0  0  0  0  0  0  0
    6.7398  -12.8970   36.0693 O   0  0  0  0  0  0  0  0  0  0  0  0
    4.7849  -17.7032   32.7175 H   0  0  0  0  0  0  0  0  0  0  0  0
    3.4514  -17.6560   33.8372 H   0  0  0  0  0  0  0  0  0  0  0  0
    3.3843  -16.6383   32.4005 H   0  0  0  0  0  0  0  0  0  0  0  0
    5.8734  -17.2614   35.1686 H   0  0  0  0  0  0  0  0  0  0  0  0
    6.9865  -15.4398   36.4538 H   0  0  0  0  0  0  0  0  0  0  0  0
    3.7465  -14.2706   32.9299 H   0  0  0  0  0  0  0  0  0  0  0  0
    4.8200  -11.8122   32.9460 H   0  0  0  0  0  0  0  0  0  0  0  0
    3.4305   -9.6098   35.2659 H   0  0  0  0  0  0  0  0  0  0  0  0
    3.4917   -7.1971   35.9800 H   0  0  0  0  0  0  0  0  0  0  0  0
    4.6052   -6.8794   34.6475 H   0  0  0  0  0  0  0  0  0  0  0  0
    2.5384   -7.3088   33.0407 H   0  0  0  0  0  0  0  0  0  0  0  0
    1.5813   -7.3860   34.4954 H   0  0  0  0  0  0  0  0  0  0  0  0
    0.0693   -5.7849   33.9489 H   0  0  0  0  0  0  0  0  0  0  0  0
    0.7290   -5.9662   32.3305 H   0  0  0  0  0  0  0  0  0  0  0  0
    0.2623   -3.2740   33.7411 H   0  0  0  0  0  0  0  0  0  0  0  0
   -0.8803   -4.0929   32.6949 H   0  0  0  0  0  0  0  0  0  0  0  0
    0.9188   -4.0985   30.8580 H   0  0  0  0  0  0  0  0  0  0  0  0
    0.0904   -2.5972   31.2123 H   0  0  0  0  0  0  0  0  0  0  0  0
    1.9354   -1.5718   32.1024 H   0  0  0  0  0  0  0  0  0  0  0  0
    2.6863   -2.6225   30.9217 H   0  0  0  0  0  0  0  0  0  0  0  0
    2.6531   -2.8471   33.9509 H   0  0  0  0  0  0  0  0  0  0  0  0
    4.0058   -2.7787   32.8530 H   0  0  0  0  0  0  0  0  0  0  0  0
    3.1551   -5.1470   31.9918 H   0  0  0  0  0  0  0  0  0  0  0  0
    4.1216   -4.9510   33.4482 H   0  0  0  0  0  0  0  0  0  0  0  0
    5.3852  -11.6096   36.9694 H   0  0  0  0  0  0  0  0  0  0  0  0
    6.8963  -10.8878   36.4151 H   0  0  0  0  0  0  0  0  0  0  0  0
  1  2  1  0
  2  3  2  0
  3  4  1  0
  4  5  2  0
  5  6  1  0
  6  7  2  0
  6  8  1  0
  8  9  2  0
  9 10  1  0
 10 11  2  0
 10 12  1  0
 12 13  1  0
 13 14  1  0
 14 15  1  0
 15 16  1  0
 16 17  1  0
 17 18  1  0
 18 19  1  0
 19 20  1  0
 20 21  1  0
  9 22  1  0
 22 23  1  0
  7  2  1  0
 21 15  1  0
 23  5  1  0
  1 24  1  0
  1 25  1  0
  1 26  1  0
  3 27  1  0
  4 28  1  0
  7 29  1  0
  8 30  1  0
 12 31  1  0
 13 32  1  0
 13 33  1  0
 14 34  1  0
 14 35  1  0
 16 36  1  0
 16 37  1  0
 17 38  1  0
 17 39  1  0
 18 40  1  0
 18 41  1  0
 19 42  1  0
 19 43  1  0
 20 44  1  0
 20 45  1  0
 21 46  1  0
 21 47  1  0
 22 48  1  0
 22 49  1  0
M  END
>  <Energy>  (1246) 
63.564064504832587

>  <compound_id>  (1246) 
57835

>  <target_id>  (1246) 
1

>  <reference_id>  (1246) 
44

>  <inspiration_ids>  (1246) 
[89, 44]

>  <energy_score>  (1246) 
1.3653412810000418

>  <distance_score>  (1246) 
9.078947666645968

>  <path>  (1246) 
/opt/xchem-fragalysis-2/maxwin/BulkDock/SCRATCH/511022/C57835-P44/C57835-P44.minimised.mol

>  <scratch_subdir>  (1246) 
/opt/xchem-fragalysis-2/maxwin/BulkDock/SCRATCH/511022/C57835-P44

>  <fragmenstein_runtime>  (1246) 
23.712494373321533

>  <fragmenstein_outcome>  (1246) 
too moved

>  <fragmenstein_mode>  (1246) 
expansion

>  <fragmenstein_error>  (1246) 


$$$$
C57836-P44
     RDKit          3D

 39 41  0  0  0  0  0  0  0  0999 V2000
   -0.3121   -8.3610   29.3608 F   0  0  0  0  0  0  0  0  0  0  0  0
    0.8262   -8.2799   30.1278 C   0  0  0  0  0  0  0  0  0  0  0  0
    1.4534   -7.1595   29.6135 F   0  0  0  0  0  0  0  0  0  0  0  0
    1.8963   -9.7121   29.6428 C   0  0  0  0  0  0  0  0  0  0  0  0
    2.3507  -11.7397   30.0043 N   0  0  0  0  0  0  0  0  0  0  0  0
    2.5711  -13.4643   31.1291 C   0  0  0  0  0  0  0  0  0  0  0  0
    2.7293  -15.5728   31.4104 C   0  0  0  0  0  0  0  0  0  0  0  0
    2.7668  -17.2872   31.9263 C   0  0  0  0  0  0  0  0  0  0  0  0
    3.1499  -19.1917   31.1628 C   0  0  0  0  0  0  0  0  0  0  0  0
    2.1532  -20.3689   29.9482 C   0  0  0  0  0  0  0  0  0  0  0  0
    1.6491  -21.2110   28.3548 C   0  0  0  0  0  0  0  0  0  0  0  0
    3.1319  -21.1168   27.2592 C   0  0  0  0  0  0  0  0  0  0  0  0
    4.0714  -19.6035   28.0470 C   0  0  0  0  0  0  0  0  0  0  0  0
    4.2493  -18.9653   29.8723 C   0  0  0  0  0  0  0  0  0  0  0  0
    3.9828  -17.3201   30.3610 O   0  0  0  0  0  0  0  0  0  0  0  0
    2.7373  -16.2127   30.1381 C   0  0  0  0  0  0  0  0  0  0  0  0
    0.3326   -7.9342   31.5342 C   0  0  0  0  0  0  0  0  0  0  0  0
   -0.7720   -6.8424   31.5639 C   0  0  0  0  0  0  0  0  0  0  0  0
    0.2847   -5.8090   31.9570 C   0  0  0  0  0  0  0  0  0  0  0  0
    1.1401   -6.9758   32.4691 C   0  0  0  0  0  0  0  0  0  0  0  0
    2.2431   -9.2024   28.7068 H   0  0  0  0  0  0  0  0  0  0  0  0
    0.8419   -9.9699   29.1936 H   0  0  0  0  0  0  0  0  0  0  0  0
    1.3546  -11.8119   30.2571 H   0  0  0  0  0  0  0  0  0  0  0  0
    2.6873  -13.7897   30.1172 H   0  0  0  0  0  0  0  0  0  0  0  0
    3.4704  -13.1302   31.6591 H   0  0  0  0  0  0  0  0  0  0  0  0
    2.6190  -17.4711   32.9929 H   0  0  0  0  0  0  0  0  0  0  0  0
    2.1802  -21.5511   30.3482 H   0  0  0  0  0  0  0  0  0  0  0  0
    1.4169  -22.2477   28.5125 H   0  0  0  0  0  0  0  0  0  0  0  0
    3.2537  -21.5931   26.3059 H   0  0  0  0  0  0  0  0  0  0  0  0
    4.8936  -19.3892   27.4099 H   0  0  0  0  0  0  0  0  0  0  0  0
    2.6883  -15.6833   29.1954 H   0  0  0  0  0  0  0  0  0  0  0  0
    1.7135  -16.5799   30.2683 H   0  0  0  0  0  0  0  0  0  0  0  0
   -0.1025   -8.8006   32.0367 H   0  0  0  0  0  0  0  0  0  0  0  0
   -1.5206   -7.0153   32.3454 H   0  0  0  0  0  0  0  0  0  0  0  0
   -1.2815   -6.6596   30.6209 H   0  0  0  0  0  0  0  0  0  0  0  0
    0.7218   -5.2764   31.1053 H   0  0  0  0  0  0  0  0  0  0  0  0
   -0.0228   -5.0792   32.7102 H   0  0  0  0  0  0  0  0  0  0  0  0
    0.9976   -7.1905   33.5349 H   0  0  0  0  0  0  0  0  0  0  0  0
    2.2043   -6.8438   32.2786 H   0  0  0  0  0  0  0  0  0  0  0  0
  1  2  1  0
  2  3  1  0
  2  4  1  0
  4  5  1  0
  5  6  1  0
  6  7  1  0
  7  8  2  0
  8  9  1  0
  9 10  2  0
 10 11  1  0
 11 12  2  0
 12 13  1  0
 13 14  2  0
 14 15  1  0
 15 16  1  0
  2 17  1  0
 17 18  1  0
 18 19  1  0
 19 20  1  0
 16  7  1  0
 20 17  1  0
 14  9  1  0
  4 21  1  0
  4 22  1  0
  5 23  1  0
  6 24  1  0
  6 25  1  0
  8 26  1  0
 10 27  1  0
 11 28  1  0
 12 29  1  0
 13 30  1  0
 16 31  1  0
 16 32  1  0
 17 33  1  0
 18 34  1  0
 18 35  1  0
 19 36  1  0
 19 37  1  0
 20 38  1  0
 20 39  1  0
M  END
>  <Energy>  (1247) 
1548.4899820139444

>  <compound_id>  (1247) 
57836

>  <target_id>  (1247) 
1

>  <reference_id>  (1247) 
44

>  <inspiration_ids>  (1247) 
[89, 44]

>  <energy_score>  (1247) 
1437.2022835705664

>  <distance_score>  (1247) 
6.569725634890511

>  <path>  (1247) 
/opt/xchem-fragalysis-2/maxwin/BulkDock/SCRATCH/511022/C57836-P44/C57836-P44.minimised.mol

>  <scratch_subdir>  (1247) 
/opt/xchem-fragalysis-2/maxwin/BulkDock/SCRATCH/511022/C57836-P44

>  <fragmenstein_runtime>  (1247) 
17.30522632598877

>  <fragmenstein_outcome>  (1247) 
too moved

>  <fragmenstein_mode>  (1247) 
expansion

>  <fragmenstein_error>  (1247) 


$$$$
C27270-P44
     RDKit          3D

 45 48  0  0  0  0  0  0  0  0999 V2000
    2.5926  -13.9633   31.9599 C   0  0  0  0  0  0  0  0  0  0  0  0
    2.9191  -12.7438   31.4310 C   0  0  0  0  0  0  0  0  0  0  0  0
    2.1161  -11.7422   29.9502 C   0  0  0  0  0  0  0  0  0  0  0  0
    1.1144  -10.1028   29.2161 N   0  0  0  0  0  0  0  0  0  0  0  0
    1.5580   -8.7319   28.9623 C   0  0  0  0  0  0  0  0  0  0  0  0
    1.0804   -7.6472   29.9259 C   0  0  0  0  0  0  0  0  0  0  0  0
   -0.3704   -7.9104   30.1388 C   0  0  0  0  0  0  0  0  0  0  0  0
   -0.8942   -6.9547   31.1640 N   0  0  0  0  0  0  0  0  0  0  0  0
   -0.6221   -7.2717   32.5615 C   0  0  0  0  0  0  0  0  0  0  0  0
   -0.5822   -5.9278   33.3108 C   0  0  0  0  0  0  0  0  0  0  0  0
   -0.6860   -4.8270   32.2688 C   0  0  0  0  0  0  0  0  0  0  0  0
   -0.3586   -5.5610   30.9917 C   0  0  0  0  0  0  0  0  0  0  0  0
   -0.3699   -9.5212   29.9466 C   0  0  0  0  0  0  0  0  0  0  0  0
    4.4967  -12.6313   32.2666 C   0  0  0  0  0  0  0  0  0  0  0  0
    4.7295  -13.3679   33.5472 O   0  0  0  0  0  0  0  0  0  0  0  0
    4.3302  -14.6660   33.5428 C   0  0  0  0  0  0  0  0  0  0  0  0
    5.1440  -15.6546   34.1287 C   0  0  0  0  0  0  0  0  0  0  0  0
    4.8930  -17.0161   33.8626 C   0  0  0  0  0  0  0  0  0  0  0  0
    3.7777  -17.3829   33.0979 C   0  0  0  0  0  0  0  0  0  0  0  0
    2.9497  -16.3861   32.5627 C   0  0  0  0  0  0  0  0  0  0  0  0
    3.2648  -15.0224   32.7419 C   0  0  0  0  0  0  0  0  0  0  0  0
    1.5990  -14.0942   32.3284 H   0  0  0  0  0  0  0  0  0  0  0  0
    2.8346  -12.1574   29.2421 H   0  0  0  0  0  0  0  0  0  0  0  0
    2.7407  -11.0356   30.2585 H   0  0  0  0  0  0  0  0  0  0  0  0
    0.8732   -8.6691   28.1455 H   0  0  0  0  0  0  0  0  0  0  0  0
    2.3836   -8.4074   28.3512 H   0  0  0  0  0  0  0  0  0  0  0  0
    1.3373   -6.6751   29.4924 H   0  0  0  0  0  0  0  0  0  0  0  0
    1.4977   -7.6284   30.9289 H   0  0  0  0  0  0  0  0  0  0  0  0
   -0.9774   -7.6020   29.2904 H   0  0  0  0  0  0  0  0  0  0  0  0
    0.3308   -7.7874   32.7110 H   0  0  0  0  0  0  0  0  0  0  0  0
   -1.4107   -7.9142   32.9646 H   0  0  0  0  0  0  0  0  0  0  0  0
   -1.3845   -5.8590   34.0491 H   0  0  0  0  0  0  0  0  0  0  0  0
    0.3660   -5.8405   33.8547 H   0  0  0  0  0  0  0  0  0  0  0  0
    0.0254   -4.0192   32.4715 H   0  0  0  0  0  0  0  0  0  0  0  0
   -1.6771   -4.3724   32.2391 H   0  0  0  0  0  0  0  0  0  0  0  0
   -0.7328   -5.0539   30.1016 H   0  0  0  0  0  0  0  0  0  0  0  0
    0.7341   -5.5241   30.9443 H   0  0  0  0  0  0  0  0  0  0  0  0
   -1.0136   -9.7373   29.1105 H   0  0  0  0  0  0  0  0  0  0  0  0
   -0.7795  -10.0842   30.7906 H   0  0  0  0  0  0  0  0  0  0  0  0
    5.3502  -12.8721   31.6294 H   0  0  0  0  0  0  0  0  0  0  0  0
    4.6559  -11.6185   32.6670 H   0  0  0  0  0  0  0  0  0  0  0  0
    6.0161  -15.3579   34.7015 H   0  0  0  0  0  0  0  0  0  0  0  0
    5.5524  -17.7850   34.2577 H   0  0  0  0  0  0  0  0  0  0  0  0
    3.5623  -18.4295   32.9033 H   0  0  0  0  0  0  0  0  0  0  0  0
    2.1062  -16.6605   31.9345 H   0  0  0  0  0  0  0  0  0  0  0  0
  1  2  2  0
  2  3  1  0
  3  4  1  0
  4  5  1  0
  5  6  1  0
  6  7  1  0
  7  8  1  0
  8  9  1  0
  9 10  1  0
 10 11  1  0
 11 12  1  0
  7 13  1  0
  2 14  1  0
 14 15  1  0
 15 16  1  0
 16 17  2  0
 17 18  1  0
 18 19  2  0
 19 20  1  0
 20 21  2  0
 21  1  1  0
 13  4  1  0
 21 16  1  0
 12  8  1  0
  1 22  1  0
  3 23  1  0
  3 24  1  0
  5 25  1  0
  5 26  1  0
  6 27  1  0
  6 28  1  0
  7 29  1  0
  9 30  1  0
  9 31  1  0
 10 32  1  0
 10 33  1  0
 11 34  1  0
 11 35  1  0
 12 36  1  0
 12 37  1  0
 13 38  1  0
 13 39  1  0
 14 40  1  0
 14 41  1  0
 17 42  1  0
 18 43  1  0
 19 44  1  0
 20 45  1  0
M  END
>  <Energy>  (1248) 
441.53072234478151

>  <compound_id>  (1248) 
27270

>  <target_id>  (1248) 
1

>  <reference_id>  (1248) 
44

>  <inspiration_ids>  (1248) 
[89, 44]

>  <energy_score>  (1248) 
358.0197176273384

>  <distance_score>  (1248) 
8.18678231190954

>  <path>  (1248) 
/opt/xchem-fragalysis-2/maxwin/BulkDock/SCRATCH/511022/C27270-P44/C27270-P44.minimised.mol

>  <scratch_subdir>  (1248) 
/opt/xchem-fragalysis-2/maxwin/BulkDock/SCRATCH/511022/C27270-P44

>  <fragmenstein_runtime>  (1248) 
15.18637490272522

>  <fragmenstein_outcome>  (1248) 
too moved

>  <fragmenstein_mode>  (1248) 
expansion

>  <fragmenstein_error>  (1248) 


$$$$
C57847-P44
     RDKit          3D

 40 42  0  0  0  0  0  0  0  0999 V2000
    1.3997   -7.1021   29.7864 O   0  0  0  0  0  0  0  0  0  0  0  0
    0.9316   -8.1319   30.1977 C   0  0  0  0  0  0  0  0  0  0  0  0
    1.4498   -9.4075   29.3992 C   0  0  0  0  0  0  0  0  0  0  0  0
    2.3680  -11.1564   29.7005 N   0  0  0  0  0  0  0  0  0  0  0  0
    2.5986  -12.3781   31.0048 C   0  0  0  0  0  0  0  0  0  0  0  0
    3.5191  -13.4904   31.9491 C   0  0  0  0  0  0  0  0  0  0  0  0
    3.0837  -14.7430   32.2882 C   0  0  0  0  0  0  0  0  0  0  0  0
    3.8192  -15.6585   33.1513 C   0  0  0  0  0  0  0  0  0  0  0  0
    3.6449  -17.0576   33.0326 C   0  0  0  0  0  0  0  0  0  0  0  0
    4.4904  -17.9209   33.7184 C   0  0  0  0  0  0  0  0  0  0  0  0
    5.4716  -17.3804   34.5502 C   0  0  0  0  0  0  0  0  0  0  0  0
    5.6245  -15.9839   34.6848 C   0  0  0  0  0  0  0  0  0  0  0  0
    4.8217  -15.1171   33.9530 C   0  0  0  0  0  0  0  0  0  0  0  0
    5.0733  -13.7690   33.9756 O   0  0  0  0  0  0  0  0  0  0  0  0
    4.7638  -13.0095   32.7540 C   0  0  0  0  0  0  0  0  0  0  0  0
   -0.0584   -8.3706   31.1954 N   0  0  0  0  0  0  0  0  0  0  0  0
   -0.7523   -7.4491   32.1067 C   0  0  0  0  0  0  0  0  0  0  0  0
   -0.1431   -7.3527   33.5288 C   0  0  0  0  0  0  0  0  0  0  0  0
    0.7205   -6.1798   33.0263 C   0  0  0  0  0  0  0  0  0  0  0  0
   -0.3711   -5.9402   31.9676 C   0  0  0  0  0  0  0  0  0  0  0  0
    1.9943   -8.9519   28.5548 H   0  0  0  0  0  0  0  0  0  0  0  0
    0.4873   -9.7234   28.9466 H   0  0  0  0  0  0  0  0  0  0  0  0
    1.4173  -11.5431   29.7137 H   0  0  0  0  0  0  0  0  0  0  0  0
    1.5841  -12.6314   31.2495 H   0  0  0  0  0  0  0  0  0  0  0  0
    2.9728  -11.6963   31.7194 H   0  0  0  0  0  0  0  0  0  0  0  0
    2.2740  -15.2797   31.8659 H   0  0  0  0  0  0  0  0  0  0  0  0
    2.8763  -17.4606   32.3810 H   0  0  0  0  0  0  0  0  0  0  0  0
    4.3769  -18.9971   33.6241 H   0  0  0  0  0  0  0  0  0  0  0  0
    6.1145  -18.0589   35.1078 H   0  0  0  0  0  0  0  0  0  0  0  0
    6.3829  -15.5678   35.3399 H   0  0  0  0  0  0  0  0  0  0  0  0
    4.6495  -11.9795   33.0942 H   0  0  0  0  0  0  0  0  0  0  0  0
    5.6644  -12.9924   32.1336 H   0  0  0  0  0  0  0  0  0  0  0  0
   -0.2664   -9.3659   31.2215 H   0  0  0  0  0  0  0  0  0  0  0  0
   -1.8228   -7.6666   32.1001 H   0  0  0  0  0  0  0  0  0  0  0  0
   -0.8744   -7.0627   34.2934 H   0  0  0  0  0  0  0  0  0  0  0  0
    0.4189   -8.2036   33.9027 H   0  0  0  0  0  0  0  0  0  0  0  0
    1.6898   -6.4817   32.6151 H   0  0  0  0  0  0  0  0  0  0  0  0
    0.8780   -5.3671   33.7398 H   0  0  0  0  0  0  0  0  0  0  0  0
   -1.1245   -5.2331   32.3291 H   0  0  0  0  0  0  0  0  0  0  0  0
   -0.0375   -5.5788   30.9936 H   0  0  0  0  0  0  0  0  0  0  0  0
  1  2  2  0
  2  3  1  0
  3  4  1  0
  4  5  1  0
  5  6  1  0
  6  7  2  0
  7  8  1  0
  8  9  2  0
  9 10  1  0
 10 11  2  0
 11 12  1  0
 12 13  2  0
 13 14  1  0
 14 15  1  0
  2 16  1  0
 16 17  1  0
 17 18  1  0
 18 19  1  0
 19 20  1  0
 15  6  1  0
 20 17  1  0
 13  8  1  0
  3 21  1  0
  3 22  1  0
  4 23  1  0
  5 24  1  0
  5 25  1  0
  7 26  1  0
  9 27  1  0
 10 28  1  0
 11 29  1  0
 12 30  1  0
 15 31  1  0
 15 32  1  0
 16 33  1  0
 17 34  1  0
 18 35  1  0
 18 36  1  0
 19 37  1  0
 19 38  1  0
 20 39  1  0
 20 40  1  0
M  END
>  <Energy>  (1249) 
319.39115169062393

>  <compound_id>  (1249) 
57847

>  <target_id>  (1249) 
1

>  <reference_id>  (1249) 
44

>  <inspiration_ids>  (1249) 
[89, 44]

>  <energy_score>  (1249) 
222.06247711125252

>  <distance_score>  (1249) 
8.25778771860769

>  <path>  (1249) 
/opt/xchem-fragalysis-2/maxwin/BulkDock/SCRATCH/511022/C57847-P44/C57847-P44.minimised.mol

>  <scratch_subdir>  (1249) 
/opt/xchem-fragalysis-2/maxwin/BulkDock/SCRATCH/511022/C57847-P44

>  <fragmenstein_runtime>  (1249) 
16.236937761306763

>  <fragmenstein_outcome>  (1249) 
too moved

>  <fragmenstein_mode>  (1249) 
expansion

>  <fragmenstein_error>  (1249) 


$$$$
C57848-P44
     RDKit          3D

 43 45  0  0  0  0  0  0  0  0999 V2000
    1.7541   -7.1278   25.1479 N   0  0  0  0  0  0  0  0  0  0  0  0
    3.0011   -7.2278   25.8571 C   0  0  0  0  0  0  0  0  0  0  0  0
    4.0466   -6.6575   25.6863 O   0  0  0  0  0  0  0  0  0  0  0  0
    3.0453   -8.3356   26.9712 C   0  0  0  0  0  0  0  0  0  0  0  0
    2.2650   -8.2736   28.3582 N   0  0  0  0  0  0  0  0  0  0  0  0
    2.0364   -9.6581   29.6217 C   0  0  0  0  0  0  0  0  0  0  0  0
    2.6131  -11.6385   30.2859 C   0  0  0  0  0  0  0  0  0  0  0  0
    2.0004  -12.7512   31.1085 C   0  0  0  0  0  0  0  0  0  0  0  0
    2.2671  -14.2830   32.2663 C   0  0  0  0  0  0  0  0  0  0  0  0
    3.0369  -14.7133   33.4685 C   0  0  0  0  0  0  0  0  0  0  0  0
    3.8217  -15.9770   33.4918 C   0  0  0  0  0  0  0  0  0  0  0  0
    5.1653  -16.2612   34.5354 Cl  0  0  0  0  0  0  0  0  0  0  0  0
    3.4741  -16.9537   32.6409 C   0  0  0  0  0  0  0  0  0  0  0  0
    2.8139  -16.3701   31.6254 C   0  0  0  0  0  0  0  0  0  0  0  0
    2.8925  -14.9917   31.4195 C   0  0  0  0  0  0  0  0  0  0  0  0
    3.9598  -13.9465   31.8459 O   0  0  0  0  0  0  0  0  0  0  0  0
    3.7815  -12.5108   31.6243 C   0  0  0  0  0  0  0  0  0  0  0  0
    2.4693   -6.8088   28.9814 C   0  0  0  0  0  0  0  0  0  0  0  0
    1.5696   -6.3428   30.1753 C   0  0  0  0  0  0  0  0  0  0  0  0
    1.8288   -4.8455   30.3330 C   0  0  0  0  0  0  0  0  0  0  0  0
    1.9574   -4.3323   28.9227 C   0  0  0  0  0  0  0  0  0  0  0  0
    2.6058   -5.4808   28.1441 C   0  0  0  0  0  0  0  0  0  0  0  0
    1.0290   -7.6886   25.6537 H   0  0  0  0  0  0  0  0  0  0  0  0
    1.1021   -7.8593   25.5034 H   0  0  0  0  0  0  0  0  0  0  0  0
    2.9005   -9.2771   26.4676 H   0  0  0  0  0  0  0  0  0  0  0  0
    4.1320   -8.2816   27.1543 H   0  0  0  0  0  0  0  0  0  0  0  0
    0.9498   -9.7637   29.1997 H   0  0  0  0  0  0  0  0  0  0  0  0
    1.5300   -8.9158   30.3170 H   0  0  0  0  0  0  0  0  0  0  0  0
    2.3967  -13.4356   30.3434 H   0  0  0  0  0  0  0  0  0  0  0  0
    3.5117  -13.9466   34.0879 H   0  0  0  0  0  0  0  0  0  0  0  0
    3.6679  -18.0050   32.7476 H   0  0  0  0  0  0  0  0  0  0  0  0
    1.9191  -16.8384   31.2348 H   0  0  0  0  0  0  0  0  0  0  0  0
    3.8361  -11.9322   32.5507 H   0  0  0  0  0  0  0  0  0  0  0  0
    4.9006  -12.5755   31.4569 H   0  0  0  0  0  0  0  0  0  0  0  0
    3.5009   -6.8647   29.3497 H   0  0  0  0  0  0  0  0  0  0  0  0
    0.5111   -6.5359   30.0161 H   0  0  0  0  0  0  0  0  0  0  0  0
    1.8044   -6.8212   31.1290 H   0  0  0  0  0  0  0  0  0  0  0  0
    1.0306   -4.3451   30.8890 H   0  0  0  0  0  0  0  0  0  0  0  0
    2.7684   -4.6892   30.8765 H   0  0  0  0  0  0  0  0  0  0  0  0
    2.5494   -3.4137   28.8667 H   0  0  0  0  0  0  0  0  0  0  0  0
    0.9657   -4.1074   28.5158 H   0  0  0  0  0  0  0  0  0  0  0  0
    2.1599   -5.4894   27.1597 H   0  0  0  0  0  0  0  0  0  0  0  0
    3.6710   -5.2607   27.9942 H   0  0  0  0  0  0  0  0  0  0  0  0
  1  2  1  0
  2  3  2  0
  2  4  1  0
  4  5  1  0
  5  6  1  0
  6  7  1  0
  7  8  2  0
  8  9  1  0
  9 10  2  0
 10 11  1  0
 11 12  1  0
 11 13  2  0
 13 14  1  0
 14 15  2  0
 15 16  1  0
 16 17  1  0
  5 18  1  0
 18 19  1  0
 19 20  1  0
 20 21  1  0
 21 22  1  0
 17  7  1  0
 22 18  1  0
 15  9  1  0
  1 23  1  0
  1 24  1  0
  4 25  1  0
  4 26  1  0
  6 27  1  0
  6 28  1  0
  8 29  1  0
 10 30  1  0
 13 31  1  0
 14 32  1  0
 17 33  1  0
 17 34  1  0
 18 35  1  0
 19 36  1  0
 19 37  1  0
 20 38  1  0
 20 39  1  0
 21 40  1  0
 21 41  1  0
 22 42  1  0
 22 43  1  0
M  END
>  <Energy>  (1250) 
1043.0002448176288

>  <compound_id>  (1250) 
57848

>  <target_id>  (1250) 
1

>  <reference_id>  (1250) 
44

>  <inspiration_ids>  (1250) 
[89, 44]

>  <energy_score>  (1250) 
935.9047582266708

>  <distance_score>  (1250) 
8.56501948493404

>  <path>  (1250) 
/opt/xchem-fragalysis-2/maxwin/BulkDock/SCRATCH/511022/C57848-P44/C57848-P44.minimised.mol

>  <scratch_subdir>  (1250) 
/opt/xchem-fragalysis-2/maxwin/BulkDock/SCRATCH/511022/C57848-P44

>  <fragmenstein_runtime>  (1250) 
19.073250770568848

>  <fragmenstein_outcome>  (1250) 
too moved

>  <fragmenstein_mode>  (1250) 
expansion

>  <fragmenstein_error>  (1250) 


$$$$
C57849-P44
     RDKit          3D

 43 45  0  0  0  0  0  0  0  0999 V2000
   -0.0546   -8.3868   31.1689 O   0  0  0  0  0  0  0  0  0  0  0  0
    0.7970   -8.1520   30.3582 C   0  0  0  0  0  0  0  0  0  0  0  0
    1.4652   -9.3624   29.4098 C   0  0  0  0  0  0  0  0  0  0  0  0
    2.3457  -11.1296   29.6982 N   0  0  0  0  0  0  0  0  0  0  0  0
    2.4441  -12.4106   31.0155 C   0  0  0  0  0  0  0  0  0  0  0  0
    3.3787  -13.4836   32.0313 C   0  0  0  0  0  0  0  0  0  0  0  0
    2.9018  -14.6742   32.4768 C   0  0  0  0  0  0  0  0  0  0  0  0
    3.7243  -15.6509   33.1502 C   0  0  0  0  0  0  0  0  0  0  0  0
    3.4687  -17.0284   32.9937 C   0  0  0  0  0  0  0  0  0  0  0  0
    4.3061  -17.9443   33.6084 C   0  0  0  0  0  0  0  0  0  0  0  0
    3.9456  -19.6164   33.5094 Cl  0  0  0  0  0  0  0  0  0  0  0  0
    5.3756  -17.4849   34.3832 C   0  0  0  0  0  0  0  0  0  0  0  0
    5.6061  -16.0999   34.5434 C   0  0  0  0  0  0  0  0  0  0  0  0
    4.8035  -15.1774   33.8887 C   0  0  0  0  0  0  0  0  0  0  0  0
    5.1295  -13.8427   33.8934 O   0  0  0  0  0  0  0  0  0  0  0  0
    4.7577  -13.0695   32.6817 C   0  0  0  0  0  0  0  0  0  0  0  0
    1.3973   -6.8621   29.9379 N   0  0  0  0  0  0  0  0  0  0  0  0
    1.2049   -5.5036   30.4494 C   0  0  0  0  0  0  0  0  0  0  0  0
    1.9946   -4.4354   29.6565 C   0  0  0  0  0  0  0  0  0  0  0  0
    1.0083   -3.3200   29.2965 C   0  0  0  0  0  0  0  0  0  0  0  0
   -0.1282   -3.4884   30.2862 C   0  0  0  0  0  0  0  0  0  0  0  0
   -0.2326   -5.0014   30.4237 C   0  0  0  0  0  0  0  0  0  0  0  0
    0.5204   -9.6692   28.9130 H   0  0  0  0  0  0  0  0  0  0  0  0
    2.0184   -8.8788   28.5959 H   0  0  0  0  0  0  0  0  0  0  0  0
    1.3618  -11.4615   29.7625 H   0  0  0  0  0  0  0  0  0  0  0  0
    3.0030  -11.7325   31.5825 H   0  0  0  0  0  0  0  0  0  0  0  0
    2.8129  -12.9737   30.1919 H   0  0  0  0  0  0  0  0  0  0  0  0
    1.9154  -15.0655   32.3934 H   0  0  0  0  0  0  0  0  0  0  0  0
    2.6160  -17.3595   32.4090 H   0  0  0  0  0  0  0  0  0  0  0  0
    6.0150  -18.2040   34.8910 H   0  0  0  0  0  0  0  0  0  0  0  0
    6.4071  -15.7271   35.1700 H   0  0  0  0  0  0  0  0  0  0  0  0
    4.7867  -12.0311   33.0217 H   0  0  0  0  0  0  0  0  0  0  0  0
    5.5910  -13.0999   31.9801 H   0  0  0  0  0  0  0  0  0  0  0  0
    2.0315   -7.0259   29.1702 H   0  0  0  0  0  0  0  0  0  0  0  0
    1.5603   -5.5200   31.4869 H   0  0  0  0  0  0  0  0  0  0  0  0
    2.4702   -4.8353   28.7544 H   0  0  0  0  0  0  0  0  0  0  0  0
    2.7939   -4.0344   30.2912 H   0  0  0  0  0  0  0  0  0  0  0  0
    1.4664   -2.3282   29.3480 H   0  0  0  0  0  0  0  0  0  0  0  0
    0.6394   -3.4683   28.2760 H   0  0  0  0  0  0  0  0  0  0  0  0
   -1.0598   -3.0367   29.9337 H   0  0  0  0  0  0  0  0  0  0  0  0
    0.1342   -3.0373   31.2500 H   0  0  0  0  0  0  0  0  0  0  0  0
   -0.7414   -5.4078   29.5524 H   0  0  0  0  0  0  0  0  0  0  0  0
   -0.7903   -5.3005   31.3162 H   0  0  0  0  0  0  0  0  0  0  0  0
  1  2  2  0
  2  3  1  0
  3  4  1  0
  4  5  1  0
  5  6  1  0
  6  7  2  0
  7  8  1  0
  8  9  2  0
  9 10  1  0
 10 11  1  0
 10 12  2  0
 12 13  1  0
 13 14  2  0
 14 15  1  0
 15 16  1  0
  2 17  1  0
 17 18  1  0
 18 19  1  0
 19 20  1  0
 20 21  1  0
 21 22  1  0
 16  6  1  0
 22 18  1  0
 14  8  1  0
  3 23  1  0
  3 24  1  0
  4 25  1  0
  5 26  1  0
  5 27  1  0
  7 28  1  0
  9 29  1  0
 12 30  1  0
 13 31  1  0
 16 32  1  0
 16 33  1  0
 17 34  1  0
 18 35  1  0
 19 36  1  0
 19 37  1  0
 20 38  1  0
 20 39  1  0
 21 40  1  0
 21 41  1  0
 22 42  1  0
 22 43  1  0
M  END
>  <Energy>  (1251) 
330.99893556100574

>  <compound_id>  (1251) 
57849

>  <target_id>  (1251) 
1

>  <reference_id>  (1251) 
44

>  <inspiration_ids>  (1251) 
[89, 44]

>  <energy_score>  (1251) 
243.0991562729199

>  <distance_score>  (1251) 
7.530225782566013

>  <path>  (1251) 
/opt/xchem-fragalysis-2/maxwin/BulkDock/SCRATCH/511022/C57849-P44/C57849-P44.minimised.mol

>  <scratch_subdir>  (1251) 
/opt/xchem-fragalysis-2/maxwin/BulkDock/SCRATCH/511022/C57849-P44

>  <fragmenstein_runtime>  (1251) 
15.786937952041626

>  <fragmenstein_outcome>  (1251) 
too moved

>  <fragmenstein_mode>  (1251) 
expansion

>  <fragmenstein_error>  (1251) 


$$$$
C57850-P44
     RDKit          3D

 43 45  0  0  0  0  0  0  0  0999 V2000
    5.1609   -6.9781   28.1731 N   0  0  0  0  0  0  0  0  0  0  0  0
    4.4612   -7.3396   26.9766 C   0  0  0  0  0  0  0  0  0  0  0  0
    4.8163   -7.3313   25.8311 O   0  0  0  0  0  0  0  0  0  0  0  0
    3.0032   -7.8567   27.2321 C   0  0  0  0  0  0  0  0  0  0  0  0
    2.4979   -7.9917   28.6400 N   0  0  0  0  0  0  0  0  0  0  0  0
    1.8718   -9.5086   29.4419 C   0  0  0  0  0  0  0  0  0  0  0  0
    2.5560  -11.5167   29.7151 C   0  0  0  0  0  0  0  0  0  0  0  0
    3.1340  -12.6100   28.8538 C   0  0  0  0  0  0  0  0  0  0  0  0
    2.5200  -13.7452   27.5305 C   0  0  0  0  0  0  0  0  0  0  0  0
    2.3233  -13.9385   25.9496 C   0  0  0  0  0  0  0  0  0  0  0  0
    2.0132  -15.0735   25.2720 C   0  0  0  0  0  0  0  0  0  0  0  0
    1.7925  -15.2616   23.4361 Br  0  0  0  0  0  0  0  0  0  0  0  0
    2.1295  -16.1024   26.0713 C   0  0  0  0  0  0  0  0  0  0  0  0
    2.3553  -15.8243   27.4575 C   0  0  0  0  0  0  0  0  0  0  0  0
    2.3155  -14.7831   28.3401 C   0  0  0  0  0  0  0  0  0  0  0  0
    2.4956  -14.5493   29.8264 O   0  0  0  0  0  0  0  0  0  0  0  0
    2.4579  -12.8940   30.6913 C   0  0  0  0  0  0  0  0  0  0  0  0
    2.1236   -6.5919   29.3139 C   0  0  0  0  0  0  0  0  0  0  0  0
    0.8930   -6.4029   30.2364 C   0  0  0  0  0  0  0  0  0  0  0  0
    0.8365   -4.8921   30.4880 C   0  0  0  0  0  0  0  0  0  0  0  0
    1.2911   -4.2402   29.1940 C   0  0  0  0  0  0  0  0  0  0  0  0
    2.2887   -5.2199   28.5641 C   0  0  0  0  0  0  0  0  0  0  0  0
    4.5040   -7.0007   28.9641 H   0  0  0  0  0  0  0  0  0  0  0  0
    4.5801   -7.2229   28.9873 H   0  0  0  0  0  0  0  0  0  0  0  0
    2.9777   -8.7986   26.6891 H   0  0  0  0  0  0  0  0  0  0  0  0
    2.4198   -7.1065   26.7501 H   0  0  0  0  0  0  0  0  0  0  0  0
    0.8790   -9.5472   28.8976 H   0  0  0  0  0  0  0  0  0  0  0  0
    1.4080   -8.9153   30.2550 H   0  0  0  0  0  0  0  0  0  0  0  0
    4.1249  -12.9635   28.8502 H   0  0  0  0  0  0  0  0  0  0  0  0
    2.3330  -13.1310   25.2097 H   0  0  0  0  0  0  0  0  0  0  0  0
    2.2328  -17.0958   25.6734 H   0  0  0  0  0  0  0  0  0  0  0  0
    2.8764  -16.6121   27.8862 H   0  0  0  0  0  0  0  0  0  0  0  0
    3.2635  -12.9885   31.4277 H   0  0  0  0  0  0  0  0  0  0  0  0
    1.5593  -12.8306   31.2725 H   0  0  0  0  0  0  0  0  0  0  0  0
    2.9346   -6.4588   30.0355 H   0  0  0  0  0  0  0  0  0  0  0  0
   -0.0506   -6.7509   29.8165 H   0  0  0  0  0  0  0  0  0  0  0  0
    1.0188   -6.9290   31.1892 H   0  0  0  0  0  0  0  0  0  0  0  0
    1.5317   -4.6310   31.2952 H   0  0  0  0  0  0  0  0  0  0  0  0
   -0.1625   -4.5637   30.7900 H   0  0  0  0  0  0  0  0  0  0  0  0
    0.4338   -4.0837   28.5319 H   0  0  0  0  0  0  0  0  0  0  0  0
    1.7430   -3.2589   29.3697 H   0  0  0  0  0  0  0  0  0  0  0  0
    3.3097   -4.8454   28.7125 H   0  0  0  0  0  0  0  0  0  0  0  0
    2.1449   -5.2481   27.4854 H   0  0  0  0  0  0  0  0  0  0  0  0
  1  2  1  0
  2  3  2  0
  2  4  1  0
  4  5  1  0
  5  6  1  0
  6  7  1  0
  7  8  2  0
  8  9  1  0
  9 10  2  0
 10 11  1  0
 11 12  1  0
 11 13  2  0
 13 14  1  0
 14 15  2  0
 15 16  1  0
 16 17  1  0
  5 18  1  0
 18 19  1  0
 19 20  1  0
 20 21  1  0
 21 22  1  0
 17  7  1  0
 22 18  1  0
 15  9  1  0
  1 23  1  0
  1 24  1  0
  4 25  1  0
  4 26  1  0
  6 27  1  0
  6 28  1  0
  8 29  1  0
 10 30  1  0
 13 31  1  0
 14 32  1  0
 17 33  1  0
 17 34  1  0
 18 35  1  0
 19 36  1  0
 19 37  1  0
 20 38  1  0
 20 39  1  0
 21 40  1  0
 21 41  1  0
 22 42  1  0
 22 43  1  0
M  END
>  <Energy>  (1252) 
776.0420490924688

>  <compound_id>  (1252) 
57850

>  <target_id>  (1252) 
1

>  <reference_id>  (1252) 
44

>  <inspiration_ids>  (1252) 
[89, 44]

>  <energy_score>  (1252) 
700.2277947153807

>  <distance_score>  (1252) 
8.20150725423867

>  <path>  (1252) 
/opt/xchem-fragalysis-2/maxwin/BulkDock/SCRATCH/511022/C57850-P44/C57850-P44.minimised.mol

>  <scratch_subdir>  (1252) 
/opt/xchem-fragalysis-2/maxwin/BulkDock/SCRATCH/511022/C57850-P44

>  <fragmenstein_runtime>  (1252) 
19.233049869537354

>  <fragmenstein_outcome>  (1252) 
too moved

>  <fragmenstein_mode>  (1252) 
expansion

>  <fragmenstein_error>  (1252) 


$$$$
C34637-P82
     RDKit          3D

 19 20  0  0  0  0  0  0  0  0999 V2000
   -9.9157  -25.4480   32.3967 C   0  0  0  0  0  0  0  0  0  0  0  0
  -10.2761  -25.1996   31.0983 C   0  0  0  0  0  0  0  0  0  0  0  0
  -11.4659  -24.5235   30.8602 C   0  0  0  0  0  0  0  0  0  0  0  0
  -11.7484  -24.1160   29.5028 C   0  0  0  0  0  0  0  0  0  0  0  0
  -11.7911  -22.7855   29.1531 C   0  0  0  0  0  0  0  0  0  0  0  0
  -11.9189  -22.3540   27.8930 N   0  0  0  0  0  0  0  0  0  0  0  0
  -12.0390  -23.3067   26.9556 C   0  0  0  0  0  0  0  0  0  0  0  0
  -11.9986  -24.6308   27.1602 N   0  0  0  0  0  0  0  0  0  0  0  0
  -11.8509  -25.0013   28.4454 C   0  0  0  0  0  0  0  0  0  0  0  0
  -12.2723  -24.1756   31.9411 C   0  0  0  0  0  0  0  0  0  0  0  0
  -11.8521  -24.5329   33.2054 C   0  0  0  0  0  0  0  0  0  0  0  0
  -10.6866  -25.1622   33.4566 N   0  0  0  0  0  0  0  0  0  0  0  0
   -8.9402  -25.8573   32.6208 H   0  0  0  0  0  0  0  0  0  0  0  0
   -9.5986  -25.4647   30.2954 H   0  0  0  0  0  0  0  0  0  0  0  0
  -11.7004  -21.9991   29.8951 H   0  0  0  0  0  0  0  0  0  0  0  0
  -12.1917  -22.9761   25.9335 H   0  0  0  0  0  0  0  0  0  0  0  0
  -11.8077  -26.0740   28.6102 H   0  0  0  0  0  0  0  0  0  0  0  0
  -13.2244  -23.6726   31.8005 H   0  0  0  0  0  0  0  0  0  0  0  0
  -12.4619  -24.3044   34.0716 H   0  0  0  0  0  0  0  0  0  0  0  0
  1  2  2  0
  2  3  1  0
  3  4  1  0
  4  5  2  0
  5  6  1  0
  6  7  2  0
  7  8  1  0
  8  9  2  0
  3 10  2  0
 10 11  1  0
 11 12  2  0
 12  1  1  0
  9  4  1  0
  1 13  1  0
  2 14  1  0
  5 15  1  0
  7 16  1  0
  9 17  1  0
 10 18  1  0
 11 19  1  0
M  END
>  <Energy>  (1253) 
24.134153359229543

>  <compound_id>  (1253) 
34637

>  <target_id>  (1253) 
1

>  <reference_id>  (1253) 
82

>  <inspiration_ids>  (1253) 
[82, 54]

>  <energy_score>  (1253) 
-11.496114080088425

>  <distance_score>  (1253) 
1.5201732331679567

>  <path>  (1253) 
/opt/xchem-fragalysis-2/maxwin/BulkDock/SCRATCH/511022/C34637-P82/C34637-P82.minimised.mol

>  <scratch_subdir>  (1253) 
/opt/xchem-fragalysis-2/maxwin/BulkDock/SCRATCH/511022/C34637-P82

>  <fragmenstein_runtime>  (1253) 
2.0211892127990723

>  <fragmenstein_outcome>  (1253) 
too moved

>  <fragmenstein_mode>  (1253) 
expansion

>  <fragmenstein_error>  (1253) 


$$$$
C34637-P54
     RDKit          3D

 19 20  0  0  0  0  0  0  0  0999 V2000
   -9.2047  -24.5265   32.7167 C   0  0  0  0  0  0  0  0  0  0  0  0
   -9.7508  -24.3677   31.4573 C   0  0  0  0  0  0  0  0  0  0  0  0
  -10.5701  -23.2760   31.1896 C   0  0  0  0  0  0  0  0  0  0  0  0
  -11.0598  -23.0597   29.8305 C   0  0  0  0  0  0  0  0  0  0  0  0
  -11.0980  -21.8080   29.2587 C   0  0  0  0  0  0  0  0  0  0  0  0
  -11.4355  -21.5729   27.9818 N   0  0  0  0  0  0  0  0  0  0  0  0
  -11.7442  -22.6421   27.2375 C   0  0  0  0  0  0  0  0  0  0  0  0
  -11.7717  -23.9092   27.6687 N   0  0  0  0  0  0  0  0  0  0  0  0
  -11.4306  -24.0809   28.9629 C   0  0  0  0  0  0  0  0  0  0  0  0
  -10.7935  -22.3792   32.2363 C   0  0  0  0  0  0  0  0  0  0  0  0
  -10.2118  -22.6224   33.4713 C   0  0  0  0  0  0  0  0  0  0  0  0
   -9.4354  -23.6902   33.7396 N   0  0  0  0  0  0  0  0  0  0  0  0
   -8.5197  -25.3322   32.9486 H   0  0  0  0  0  0  0  0  0  0  0  0
   -9.4760  -25.0526   30.6711 H   0  0  0  0  0  0  0  0  0  0  0  0
  -10.8210  -20.9127   29.8080 H   0  0  0  0  0  0  0  0  0  0  0  0
  -12.0122  -22.4577   26.2021 H   0  0  0  0  0  0  0  0  0  0  0  0
  -11.4573  -25.1169   29.2893 H   0  0  0  0  0  0  0  0  0  0  0  0
  -11.4282  -21.5055   32.1195 H   0  0  0  0  0  0  0  0  0  0  0  0
  -10.3879  -21.9476   34.3061 H   0  0  0  0  0  0  0  0  0  0  0  0
  1  2  2  0
  2  3  1  0
  3  4  1  0
  4  5  2  0
  5  6  1  0
  6  7  2  0
  7  8  1  0
  8  9  2  0
  3 10  2  0
 10 11  1  0
 11 12  2  0
 12  1  1  0
  9  4  1  0
  1 13  1  0
  2 14  1  0
  5 15  1  0
  7 16  1  0
  9 17  1  0
 10 18  1  0
 11 19  1  0
M  END
>  <Energy>  (1254) 
23.230003782758615

>  <compound_id>  (1254) 
34637

>  <target_id>  (1254) 
1

>  <reference_id>  (1254) 
54

>  <inspiration_ids>  (1254) 
[82, 54]

>  <energy_score>  (1254) 
-12.400263656558986

>  <distance_score>  (1254) 
1.9999714343817763

>  <path>  (1254) 
/opt/xchem-fragalysis-2/maxwin/BulkDock/SCRATCH/511022/C34637-P54/C34637-P54.minimised.mol

>  <scratch_subdir>  (1254) 
/opt/xchem-fragalysis-2/maxwin/BulkDock/SCRATCH/511022/C34637-P54

>  <fragmenstein_runtime>  (1254) 
1.6640076637268066

>  <fragmenstein_outcome>  (1254) 
too moved

>  <fragmenstein_mode>  (1254) 
expansion

>  <fragmenstein_error>  (1254) 


$$$$
C69252-P82
     RDKit          3D

 17 18  0  0  0  0  0  0  0  0999 V2000
  -10.5710  -25.9627   31.8195 C   0  0  0  0  0  0  0  0  0  0  0  0
  -10.9430  -25.5707   30.5638 C   0  0  0  0  0  0  0  0  0  0  0  0
  -11.6123  -24.3667   30.4571 C   0  0  0  0  0  0  0  0  0  0  0  0
  -11.8421  -23.8825   29.1595 N   0  0  0  0  0  0  0  0  0  0  0  0
  -11.8788  -22.5479   28.9072 N   0  0  0  0  0  0  0  0  0  0  0  0
  -11.7955  -22.5382   27.5789 C   0  0  0  0  0  0  0  0  0  0  0  0
  -11.7562  -23.8256   27.0583 C   0  0  0  0  0  0  0  0  0  0  0  0
  -11.7425  -24.7001   28.0559 N   0  0  0  0  0  0  0  0  0  0  0  0
  -11.9466  -23.6362   31.5987 C   0  0  0  0  0  0  0  0  0  0  0  0
  -11.5739  -24.1632   32.8217 C   0  0  0  0  0  0  0  0  0  0  0  0
  -10.8528  -25.2947   32.9550 N   0  0  0  0  0  0  0  0  0  0  0  0
  -10.0456  -26.8939   31.9136 H   0  0  0  0  0  0  0  0  0  0  0  0
  -10.6624  -26.1764   29.7097 H   0  0  0  0  0  0  0  0  0  0  0  0
  -11.7612  -21.6115   27.0424 H   0  0  0  0  0  0  0  0  0  0  0  0
  -11.7062  -24.1549   26.0305 H   0  0  0  0  0  0  0  0  0  0  0  0
  -12.4995  -22.7064   31.5398 H   0  0  0  0  0  0  0  0  0  0  0  0
  -11.8482  -23.6733   33.7516 H   0  0  0  0  0  0  0  0  0  0  0  0
  1  2  2  0
  2  3  1  0
  3  4  1  0
  4  5  1  0
  5  6  2  0
  6  7  1  0
  7  8  2  0
  3  9  2  0
  9 10  1  0
 10 11  2  0
 11  1  1  0
  8  4  1  0
  1 12  1  0
  2 13  1  0
  6 14  1  0
  7 15  1  0
  9 16  1  0
 10 17  1  0
M  END
>  <Energy>  (1255) 
35.611486199712971

>  <compound_id>  (1255) 
69252

>  <target_id>  (1255) 
1

>  <reference_id>  (1255) 
82

>  <inspiration_ids>  (1255) 
[82, 54]

>  <energy_score>  (1255) 
-31.468505375518887

>  <distance_score>  (1255) 
1.3946025913510953

>  <path>  (1255) 
/opt/xchem-fragalysis-2/maxwin/BulkDock/SCRATCH/511022/C69252-P82/C69252-P82.minimised.mol

>  <scratch_subdir>  (1255) 
/opt/xchem-fragalysis-2/maxwin/BulkDock/SCRATCH/511022/C69252-P82

>  <fragmenstein_runtime>  (1255) 
1.2741007804870605

>  <fragmenstein_outcome>  (1255) 
too moved

>  <fragmenstein_mode>  (1255) 
expansion

>  <fragmenstein_error>  (1255) 


$$$$
C69252-P54
     RDKit          3D

 17 18  0  0  0  0  0  0  0  0999 V2000
  -11.7234  -26.3873   30.8601 C   0  0  0  0  0  0  0  0  0  0  0  0
  -11.8850  -25.5305   29.8014 C   0  0  0  0  0  0  0  0  0  0  0  0
  -11.2383  -24.2972   29.8722 C   0  0  0  0  0  0  0  0  0  0  0  0
  -11.3715  -23.3923   28.8079 N   0  0  0  0  0  0  0  0  0  0  0  0
  -10.9344  -22.1163   28.9094 N   0  0  0  0  0  0  0  0  0  0  0  0
  -11.2334  -21.6301   27.7091 C   0  0  0  0  0  0  0  0  0  0  0  0
  -11.7994  -22.6273   26.9107 C   0  0  0  0  0  0  0  0  0  0  0  0
  -11.9210  -23.7532   27.6128 N   0  0  0  0  0  0  0  0  0  0  0  0
  -10.4181  -23.9699   30.9513 C   0  0  0  0  0  0  0  0  0  0  0  0
  -10.2531  -24.9291   31.9128 C   0  0  0  0  0  0  0  0  0  0  0  0
  -10.9502  -26.0957   31.9231 N   0  0  0  0  0  0  0  0  0  0  0  0
  -12.2123  -27.3571   30.8859 H   0  0  0  0  0  0  0  0  0  0  0  0
  -12.5088  -25.8132   28.9595 H   0  0  0  0  0  0  0  0  0  0  0  0
  -11.0295  -20.5935   27.4844 H   0  0  0  0  0  0  0  0  0  0  0  0
  -12.1494  -22.5695   25.8890 H   0  0  0  0  0  0  0  0  0  0  0  0
   -9.8787  -23.0308   31.0138 H   0  0  0  0  0  0  0  0  0  0  0  0
   -9.5798  -24.7754   32.7518 H   0  0  0  0  0  0  0  0  0  0  0  0
  1  2  2  0
  2  3  1  0
  3  4  1  0
  4  5  1  0
  5  6  2  0
  6  7  1  0
  7  8  2  0
  3  9  2  0
  9 10  1  0
 10 11  2  0
 11  1  1  0
  8  4  1  0
  1 12  1  0
  2 13  1  0
  6 14  1  0
  7 15  1  0
  9 16  1  0
 10 17  1  0
M  END
>  <Energy>  (1256) 
31.258384605980581

>  <compound_id>  (1256) 
69252

>  <target_id>  (1256) 
1

>  <reference_id>  (1256) 
54

>  <inspiration_ids>  (1256) 
[82, 54]

>  <energy_score>  (1256) 
-35.82160696925146

>  <distance_score>  (1256) 
1.6706412743151726

>  <path>  (1256) 
/opt/xchem-fragalysis-2/maxwin/BulkDock/SCRATCH/511022/C69252-P54/C69252-P54.minimised.mol

>  <scratch_subdir>  (1256) 
/opt/xchem-fragalysis-2/maxwin/BulkDock/SCRATCH/511022/C69252-P54

>  <fragmenstein_runtime>  (1256) 
0.9817178249359131

>  <fragmenstein_outcome>  (1256) 
too moved

>  <fragmenstein_mode>  (1256) 
expansion

>  <fragmenstein_error>  (1256) 


$$$$
C69254-P82
     RDKit          3D

 17 18  0  0  0  0  0  0  0  0999 V2000
  -11.6913  -24.4139   33.2080 C   0  0  0  0  0  0  0  0  0  0  0  0
  -12.4926  -23.4714   32.5844 C   0  0  0  0  0  0  0  0  0  0  0  0
  -12.4384  -23.3470   31.2067 C   0  0  0  0  0  0  0  0  0  0  0  0
  -11.5888  -24.1854   30.4993 C   0  0  0  0  0  0  0  0  0  0  0  0
  -11.5082  -24.0350   29.0973 N   0  0  0  0  0  0  0  0  0  0  0  0
  -10.7855  -24.8200   28.2452 C   0  0  0  0  0  0  0  0  0  0  0  0
  -10.9191  -24.3973   27.0129 N   0  0  0  0  0  0  0  0  0  0  0  0
  -11.7368  -23.3226   27.1580 C   0  0  0  0  0  0  0  0  0  0  0  0
  -12.0811  -23.0226   28.4026 N   0  0  0  0  0  0  0  0  0  0  0  0
  -10.7904  -25.1180   31.0930 N   0  0  0  0  0  0  0  0  0  0  0  0
  -10.8617  -25.2042   32.4353 C   0  0  0  0  0  0  0  0  0  0  0  0
  -11.7296  -24.5414   34.2803 H   0  0  0  0  0  0  0  0  0  0  0  0
  -13.1704  -22.8563   33.1678 H   0  0  0  0  0  0  0  0  0  0  0  0
  -13.0762  -22.6279   30.7052 H   0  0  0  0  0  0  0  0  0  0  0  0
  -10.2048  -25.6671   28.5837 H   0  0  0  0  0  0  0  0  0  0  0  0
  -12.0873  -22.7330   26.3214 H   0  0  0  0  0  0  0  0  0  0  0  0
  -10.2251  -25.9568   32.8861 H   0  0  0  0  0  0  0  0  0  0  0  0
  1  2  2  0
  2  3  1  0
  3  4  2  0
  4  5  1  0
  5  6  1  0
  6  7  2  0
  7  8  1  0
  8  9  2  0
  4 10  1  0
 10 11  2  0
 11  1  1  0
  9  5  1  0
  1 12  1  0
  2 13  1  0
  3 14  1  0
  6 15  1  0
  8 16  1  0
 11 17  1  0
M  END
>  <Energy>  (1257) 
58.630076684512076

>  <compound_id>  (1257) 
69254

>  <target_id>  (1257) 
1

>  <reference_id>  (1257) 
82

>  <inspiration_ids>  (1257) 
[82, 54]

>  <energy_score>  (1257) 
-24.83323235850149

>  <distance_score>  (1257) 
2.299578619589105

>  <path>  (1257) 
/opt/xchem-fragalysis-2/maxwin/BulkDock/SCRATCH/511022/C69254-P82/C69254-P82.minimised.mol

>  <scratch_subdir>  (1257) 
/opt/xchem-fragalysis-2/maxwin/BulkDock/SCRATCH/511022/C69254-P82

>  <fragmenstein_runtime>  (1257) 
1.2756121158599854

>  <fragmenstein_outcome>  (1257) 
too moved

>  <fragmenstein_mode>  (1257) 
expansion

>  <fragmenstein_error>  (1257) 


$$$$
C69254-P54
     RDKit          3D

 17 18  0  0  0  0  0  0  0  0999 V2000
   -9.7561  -23.2299   33.1275 C   0  0  0  0  0  0  0  0  0  0  0  0
  -10.5031  -22.2177   32.5487 C   0  0  0  0  0  0  0  0  0  0  0  0
  -10.9729  -22.3687   31.2496 C   0  0  0  0  0  0  0  0  0  0  0  0
  -10.7093  -23.5525   30.5707 C   0  0  0  0  0  0  0  0  0  0  0  0
  -11.0706  -23.6439   29.1977 N   0  0  0  0  0  0  0  0  0  0  0  0
  -11.4388  -22.6221   28.3564 C   0  0  0  0  0  0  0  0  0  0  0  0
  -11.7103  -23.0894   27.1647 N   0  0  0  0  0  0  0  0  0  0  0  0
  -11.4589  -24.4160   27.3017 C   0  0  0  0  0  0  0  0  0  0  0  0
  -11.0556  -24.8092   28.5030 N   0  0  0  0  0  0  0  0  0  0  0  0
  -10.0668  -24.5956   31.1645 N   0  0  0  0  0  0  0  0  0  0  0  0
   -9.5673  -24.3912   32.4039 C   0  0  0  0  0  0  0  0  0  0  0  0
   -9.3455  -23.1221   34.1242 H   0  0  0  0  0  0  0  0  0  0  0  0
  -10.7115  -21.3055   33.1027 H   0  0  0  0  0  0  0  0  0  0  0  0
  -11.5424  -21.5514   30.8221 H   0  0  0  0  0  0  0  0  0  0  0  0
  -11.4705  -21.5798   28.6375 H   0  0  0  0  0  0  0  0  0  0  0  0
  -11.5739  -25.1263   26.4930 H   0  0  0  0  0  0  0  0  0  0  0  0
   -8.9919  -25.2104   32.8213 H   0  0  0  0  0  0  0  0  0  0  0  0
  1  2  2  0
  2  3  1  0
  3  4  2  0
  4  5  1  0
  5  6  1  0
  6  7  2  0
  7  8  1  0
  8  9  2  0
  4 10  1  0
 10 11  2  0
 11  1  1  0
  9  5  1  0
  1 12  1  0
  2 13  1  0
  3 14  1  0
  6 15  1  0
  8 16  1  0
 11 17  1  0
M  END
>  <Energy>  (1258) 
69.831881841860934

>  <compound_id>  (1258) 
69254

>  <target_id>  (1258) 
1

>  <reference_id>  (1258) 
54

>  <inspiration_ids>  (1258) 
[82, 54]

>  <energy_score>  (1258) 
-13.631427201152576

>  <distance_score>  (1258) 
2.4567021330192254

>  <path>  (1258) 
/opt/xchem-fragalysis-2/maxwin/BulkDock/SCRATCH/511022/C69254-P54/C69254-P54.minimised.mol

>  <scratch_subdir>  (1258) 
/opt/xchem-fragalysis-2/maxwin/BulkDock/SCRATCH/511022/C69254-P54

>  <fragmenstein_runtime>  (1258) 
1.0014185905456543

>  <fragmenstein_outcome>  (1258) 
too moved

>  <fragmenstein_mode>  (1258) 
expansion

>  <fragmenstein_error>  (1258) 


$$$$
C69257-P82
     RDKit          3D

 17 18  0  0  0  0  0  0  0  0999 V2000
  -10.3372  -26.1512   31.6505 C   0  0  0  0  0  0  0  0  0  0  0  0
  -10.7915  -25.5520   30.5129 C   0  0  0  0  0  0  0  0  0  0  0  0
  -11.5534  -24.4145   30.6832 C   0  0  0  0  0  0  0  0  0  0  0  0
  -11.8029  -23.6567   29.5391 N   0  0  0  0  0  0  0  0  0  0  0  0
  -12.0020  -22.3127   29.5105 C   0  0  0  0  0  0  0  0  0  0  0  0
  -12.0197  -21.8930   28.2755 N   0  0  0  0  0  0  0  0  0  0  0  0
  -11.8355  -23.0297   27.5548 C   0  0  0  0  0  0  0  0  0  0  0  0
  -11.6174  -24.1261   28.2761 N   0  0  0  0  0  0  0  0  0  0  0  0
  -11.9306  -23.9754   31.9562 C   0  0  0  0  0  0  0  0  0  0  0  0
  -11.4648  -24.6934   33.0330 C   0  0  0  0  0  0  0  0  0  0  0  0
  -10.6380  -25.7453   32.9065 N   0  0  0  0  0  0  0  0  0  0  0  0
   -9.6963  -27.0134   31.5372 H   0  0  0  0  0  0  0  0  0  0  0  0
  -10.4813  -25.9280   29.5447 H   0  0  0  0  0  0  0  0  0  0  0  0
  -12.0866  -21.7047   30.3944 H   0  0  0  0  0  0  0  0  0  0  0  0
  -11.8547  -23.0570   26.4732 H   0  0  0  0  0  0  0  0  0  0  0  0
  -12.5837  -23.1285   32.1237 H   0  0  0  0  0  0  0  0  0  0  0  0
  -11.7488  -24.4347   34.0479 H   0  0  0  0  0  0  0  0  0  0  0  0
  1  2  2  0
  2  3  1  0
  3  4  1  0
  4  5  1  0
  5  6  2  0
  6  7  1  0
  7  8  2  0
  3  9  2  0
  9 10  1  0
 10 11  2  0
 11  1  1  0
  8  4  1  0
  1 12  1  0
  2 13  1  0
  5 14  1  0
  7 15  1  0
  9 16  1  0
 10 17  1  0
M  END
>  <Energy>  (1259) 
36.683956034830715

>  <compound_id>  (1259) 
69257

>  <target_id>  (1259) 
1

>  <reference_id>  (1259) 
82

>  <inspiration_ids>  (1259) 
[82, 54]

>  <energy_score>  (1259) 
-19.95555327551589

>  <distance_score>  (1259) 
1.3553219974697757

>  <path>  (1259) 
/opt/xchem-fragalysis-2/maxwin/BulkDock/SCRATCH/511022/C69257-P82/C69257-P82.minimised.mol

>  <scratch_subdir>  (1259) 
/opt/xchem-fragalysis-2/maxwin/BulkDock/SCRATCH/511022/C69257-P82

>  <fragmenstein_runtime>  (1259) 
0.9296245574951172

>  <fragmenstein_outcome>  (1259) 
too moved

>  <fragmenstein_mode>  (1259) 
expansion

>  <fragmenstein_error>  (1259) 


$$$$
C69257-P54
     RDKit          3D

 17 18  0  0  0  0  0  0  0  0999 V2000
  -11.6808  -26.3236   30.9006 C   0  0  0  0  0  0  0  0  0  0  0  0
  -11.7929  -25.3795   29.9135 C   0  0  0  0  0  0  0  0  0  0  0  0
  -11.1203  -24.1713   30.1020 C   0  0  0  0  0  0  0  0  0  0  0  0
  -11.2569  -23.1714   29.1327 N   0  0  0  0  0  0  0  0  0  0  0  0
  -10.9484  -21.8487   29.2453 C   0  0  0  0  0  0  0  0  0  0  0  0
  -11.1455  -21.2473   28.1011 N   0  0  0  0  0  0  0  0  0  0  0  0
  -11.5990  -22.2509   27.3003 C   0  0  0  0  0  0  0  0  0  0  0  0
  -11.7306  -23.4366   27.8937 N   0  0  0  0  0  0  0  0  0  0  0  0
  -10.2892  -23.9682   31.2016 C   0  0  0  0  0  0  0  0  0  0  0  0
  -10.1711  -25.0101   32.0813 C   0  0  0  0  0  0  0  0  0  0  0  0
  -10.9233  -26.1386   31.9979 N   0  0  0  0  0  0  0  0  0  0  0  0
  -12.2024  -27.2747   30.8416 H   0  0  0  0  0  0  0  0  0  0  0  0
  -12.4166  -25.5695   29.0453 H   0  0  0  0  0  0  0  0  0  0  0  0
  -10.6174  -21.3764   30.1572 H   0  0  0  0  0  0  0  0  0  0  0  0
  -11.8631  -22.1080   26.2593 H   0  0  0  0  0  0  0  0  0  0  0  0
   -9.6999  -23.0732   31.3573 H   0  0  0  0  0  0  0  0  0  0  0  0
   -9.4995  -24.9561   32.9339 H   0  0  0  0  0  0  0  0  0  0  0  0
  1  2  2  0
  2  3  1  0
  3  4  1  0
  4  5  1  0
  5  6  2  0
  6  7  1  0
  7  8  2  0
  3  9  2  0
  9 10  1  0
 10 11  2  0
 11  1  1  0
  8  4  1  0
  1 12  1  0
  2 13  1  0
  5 14  1  0
  7 15  1  0
  9 16  1  0
 10 17  1  0
M  END
>  <Energy>  (1260) 
33.782994706873971

>  <compound_id>  (1260) 
69257

>  <target_id>  (1260) 
1

>  <reference_id>  (1260) 
54

>  <inspiration_ids>  (1260) 
[82, 54]

>  <energy_score>  (1260) 
-22.856514603472363

>  <distance_score>  (1260) 
1.5057282421124865

>  <path>  (1260) 
/opt/xchem-fragalysis-2/maxwin/BulkDock/SCRATCH/511022/C69257-P54/C69257-P54.minimised.mol

>  <scratch_subdir>  (1260) 
/opt/xchem-fragalysis-2/maxwin/BulkDock/SCRATCH/511022/C69257-P54

>  <fragmenstein_runtime>  (1260) 
0.8998446464538574

>  <fragmenstein_outcome>  (1260) 
too moved

>  <fragmenstein_mode>  (1260) 
expansion

>  <fragmenstein_error>  (1260) 


$$$$
C34638-P82
     RDKit          3D

 19 20  0  0  0  0  0  0  0  0999 V2000
  -12.3839  -24.1105   33.1120 C   0  0  0  0  0  0  0  0  0  0  0  0
  -11.3516  -24.9057   33.5602 C   0  0  0  0  0  0  0  0  0  0  0  0
  -10.3966  -25.4387   32.7791 N   0  0  0  0  0  0  0  0  0  0  0  0
  -10.5089  -25.2035   31.4606 C   0  0  0  0  0  0  0  0  0  0  0  0
  -11.5093  -24.4187   30.8914 C   0  0  0  0  0  0  0  0  0  0  0  0
  -11.5724  -24.1767   29.4652 C   0  0  0  0  0  0  0  0  0  0  0  0
  -11.7254  -22.9047   28.9467 C   0  0  0  0  0  0  0  0  0  0  0  0
  -11.8188  -22.6403   27.6437 N   0  0  0  0  0  0  0  0  0  0  0  0
  -11.7712  -23.7101   26.8415 C   0  0  0  0  0  0  0  0  0  0  0  0
  -11.5841  -24.9872   27.2116 N   0  0  0  0  0  0  0  0  0  0  0  0
  -11.4953  -25.1893   28.5320 C   0  0  0  0  0  0  0  0  0  0  0  0
  -12.4592  -23.8625   31.7547 C   0  0  0  0  0  0  0  0  0  0  0  0
  -13.1371  -23.7413   33.7960 H   0  0  0  0  0  0  0  0  0  0  0  0
  -11.2688  -25.1646   34.6057 H   0  0  0  0  0  0  0  0  0  0  0  0
   -9.7343  -25.6718   30.8604 H   0  0  0  0  0  0  0  0  0  0  0  0
  -11.7830  -22.0321   29.5897 H   0  0  0  0  0  0  0  0  0  0  0  0
  -11.9022  -23.5245   25.7797 H   0  0  0  0  0  0  0  0  0  0  0  0
  -11.3781  -26.2274   28.8294 H   0  0  0  0  0  0  0  0  0  0  0  0
  -13.3013  -23.2924   31.3673 H   0  0  0  0  0  0  0  0  0  0  0  0
  1  2  2  0
  2  3  1  0
  3  4  2  0
  4  5  1  0
  5  6  1  0
  6  7  2  0
  7  8  1  0
  8  9  2  0
  9 10  1  0
 10 11  2  0
  5 12  2  0
 12  1  1  0
 11  6  1  0
  1 13  1  0
  2 14  1  0
  4 15  1  0
  7 16  1  0
  9 17  1  0
 11 18  1  0
 12 19  1  0
M  END
>  <Energy>  (1261) 
33.284364786640495

>  <compound_id>  (1261) 
34638

>  <target_id>  (1261) 
1

>  <reference_id>  (1261) 
82

>  <inspiration_ids>  (1261) 
[82, 54]

>  <energy_score>  (1261) 
-10.73444964869941

>  <distance_score>  (1261) 
2.0998637756248346

>  <path>  (1261) 
/opt/xchem-fragalysis-2/maxwin/BulkDock/SCRATCH/511022/C34638-P82/C34638-P82.minimised.mol

>  <scratch_subdir>  (1261) 
/opt/xchem-fragalysis-2/maxwin/BulkDock/SCRATCH/511022/C34638-P82

>  <fragmenstein_runtime>  (1261) 
1.0389273166656494

>  <fragmenstein_outcome>  (1261) 
too moved

>  <fragmenstein_mode>  (1261) 
expansion

>  <fragmenstein_error>  (1261) 


$$$$
C34638-P54
     RDKit          3D

 19 20  0  0  0  0  0  0  0  0999 V2000
  -10.3033  -22.3414   33.1892 C   0  0  0  0  0  0  0  0  0  0  0  0
   -9.5621  -23.4468   33.5627 C   0  0  0  0  0  0  0  0  0  0  0  0
   -9.3652  -24.5143   32.7699 N   0  0  0  0  0  0  0  0  0  0  0  0
   -9.8705  -24.4236   31.5199 C   0  0  0  0  0  0  0  0  0  0  0  0
  -10.6089  -23.3585   31.0177 C   0  0  0  0  0  0  0  0  0  0  0  0
  -11.0704  -23.3415   29.6370 C   0  0  0  0  0  0  0  0  0  0  0  0
  -11.0466  -22.1939   28.8680 C   0  0  0  0  0  0  0  0  0  0  0  0
  -11.4370  -22.1468   27.5923 N   0  0  0  0  0  0  0  0  0  0  0  0
  -11.8622  -23.3014   27.0707 C   0  0  0  0  0  0  0  0  0  0  0  0
  -11.9235  -24.4842   27.6983 N   0  0  0  0  0  0  0  0  0  0  0  0
  -11.5274  -24.4704   28.9780 C   0  0  0  0  0  0  0  0  0  0  0  0
  -10.8392  -22.3058   31.9049 C   0  0  0  0  0  0  0  0  0  0  0  0
  -10.4776  -21.5276   33.8856 H   0  0  0  0  0  0  0  0  0  0  0  0
   -9.1156  -23.5083   34.5480 H   0  0  0  0  0  0  0  0  0  0  0  0
   -9.6366  -25.2623   30.8851 H   0  0  0  0  0  0  0  0  0  0  0  0
  -10.6873  -21.2447   29.2567 H   0  0  0  0  0  0  0  0  0  0  0  0
  -12.2011  -23.2672   26.0408 H   0  0  0  0  0  0  0  0  0  0  0  0
  -11.6014  -25.4334   29.4752 H   0  0  0  0  0  0  0  0  0  0  0  0
  -11.4440  -21.4476   31.6193 H   0  0  0  0  0  0  0  0  0  0  0  0
  1  2  2  0
  2  3  1  0
  3  4  2  0
  4  5  1  0
  5  6  1  0
  6  7  2  0
  7  8  1  0
  8  9  2  0
  9 10  1  0
 10 11  2  0
  5 12  2  0
 12  1  1  0
 11  6  1  0
  1 13  1  0
  2 14  1  0
  4 15  1  0
  7 16  1  0
  9 17  1  0
 11 18  1  0
 12 19  1  0
M  END
>  <Energy>  (1262) 
33.12617301861129

>  <compound_id>  (1262) 
34638

>  <target_id>  (1262) 
1

>  <reference_id>  (1262) 
54

>  <inspiration_ids>  (1262) 
[82, 54]

>  <energy_score>  (1262) 
-10.892641416727514

>  <distance_score>  (1262) 
2.4086892995279254

>  <path>  (1262) 
/opt/xchem-fragalysis-2/maxwin/BulkDock/SCRATCH/511022/C34638-P54/C34638-P54.minimised.mol

>  <scratch_subdir>  (1262) 
/opt/xchem-fragalysis-2/maxwin/BulkDock/SCRATCH/511022/C34638-P54

>  <fragmenstein_runtime>  (1262) 
1.020672082901001

>  <fragmenstein_outcome>  (1262) 
too moved

>  <fragmenstein_mode>  (1262) 
expansion

>  <fragmenstein_error>  (1262) 


$$$$
C69259-P82
     RDKit          3D

 41 42  0  0  0  0  0  0  0  0999 V2000
  -11.7547  -23.9402   27.0304 C   0  0  0  0  0  0  0  0  0  0  0  0
  -11.1303  -22.9556   27.8487 O   0  0  0  0  0  0  0  0  0  0  0  0
  -11.6862  -22.7617   29.0701 C   0  0  0  0  0  0  0  0  0  0  0  0
  -12.4976  -23.6247   29.7305 C   0  0  0  0  0  0  0  0  0  0  0  0
  -13.1522  -23.2830   30.8606 N   0  0  0  0  0  0  0  0  0  0  0  0
  -12.8107  -22.1580   31.4956 C   0  0  0  0  0  0  0  0  0  0  0  0
  -11.7149  -21.4590   31.1372 C   0  0  0  0  0  0  0  0  0  0  0  0
  -10.9051  -20.9925   32.3410 C   0  0  0  0  0  0  0  0  0  0  0  0
  -11.4147  -20.4235   33.2658 O   0  0  0  0  0  0  0  0  0  0  0  0
   -9.5573  -21.4534   32.1535 N   0  0  0  0  0  0  0  0  0  0  0  0
   -8.0652  -21.2303   33.1811 C   0  0  0  0  0  0  0  0  0  0  0  0
   -9.4126  -23.1408   32.7233 C   0  0  0  0  0  0  0  0  0  0  0  0
  -10.1428  -24.3488   32.0153 C   0  0  0  0  0  0  0  0  0  0  0  0
  -11.4895  -24.6208   32.5278 N   0  0  0  0  0  0  0  0  0  0  0  0
  -12.2656  -23.9615   33.5785 C   0  0  0  0  0  0  0  0  0  0  0  0
  -11.9652  -23.0906   34.3325 O   0  0  0  0  0  0  0  0  0  0  0  0
  -13.6629  -24.4581   33.5641 C   0  0  0  0  0  0  0  0  0  0  0  0
  -14.8006  -23.7073   34.0642 N   0  0  0  0  0  0  0  0  0  0  0  0
  -15.0387  -22.4072   33.7558 N   0  0  0  0  0  0  0  0  0  0  0  0
  -16.3365  -22.2890   34.0289 C   0  0  0  0  0  0  0  0  0  0  0  0
  -16.8525  -23.5155   34.4447 C   0  0  0  0  0  0  0  0  0  0  0  0
  -15.8896  -24.4355   34.4515 N   0  0  0  0  0  0  0  0  0  0  0  0
  -11.3091  -21.6527   29.8118 C   0  0  0  0  0  0  0  0  0  0  0  0
  -12.8220  -23.7366   26.9041 H   0  0  0  0  0  0  0  0  0  0  0  0
  -11.2939  -23.9092   26.0397 H   0  0  0  0  0  0  0  0  0  0  0  0
  -11.5887  -24.9452   27.4319 H   0  0  0  0  0  0  0  0  0  0  0  0
  -12.7410  -24.6125   29.3604 H   0  0  0  0  0  0  0  0  0  0  0  0
  -13.3189  -21.9231   32.4155 H   0  0  0  0  0  0  0  0  0  0  0  0
   -7.0756  -21.0937   32.7210 H   0  0  0  0  0  0  0  0  0  0  0  0
   -8.1889  -20.2629   33.6809 H   0  0  0  0  0  0  0  0  0  0  0  0
   -7.8113  -22.0764   33.7971 H   0  0  0  0  0  0  0  0  0  0  0  0
   -8.4544  -23.5318   32.9794 H   0  0  0  0  0  0  0  0  0  0  0  0
  -10.1114  -23.1794   33.4985 H   0  0  0  0  0  0  0  0  0  0  0  0
  -10.1810  -24.2898   30.9309 H   0  0  0  0  0  0  0  0  0  0  0  0
   -9.5827  -25.2625   32.2491 H   0  0  0  0  0  0  0  0  0  0  0  0
  -12.0918  -25.2648   32.0234 H   0  0  0  0  0  0  0  0  0  0  0  0
  -13.9297  -24.5646   32.5266 H   0  0  0  0  0  0  0  0  0  0  0  0
  -13.6505  -25.3865   34.1267 H   0  0  0  0  0  0  0  0  0  0  0  0
  -16.8328  -21.3386   33.9035 H   0  0  0  0  0  0  0  0  0  0  0  0
  -17.8592  -23.7841   34.7290 H   0  0  0  0  0  0  0  0  0  0  0  0
  -10.5640  -21.0167   29.3898 H   0  0  0  0  0  0  0  0  0  0  0  0
  1  2  1  0
  2  3  1  0
  3  4  2  0
  4  5  1  0
  5  6  2  0
  6  7  1  0
  7  8  1  0
  8  9  2  0
  8 10  1  0
 10 11  1  0
 10 12  1  0
 12 13  1  0
 13 14  1  0
 14 15  1  0
 15 16  2  0
 15 17  1  0
 17 18  1  0
 18 19  1  0
 19 20  2  0
 20 21  1  0
 21 22  2  0
  7 23  2  0
 23  3  1  0
 22 18  1  0
  1 24  1  0
  1 25  1  0
  1 26  1  0
  4 27  1  0
  6 28  1  0
 11 29  1  0
 11 30  1  0
 11 31  1  0
 12 32  1  0
 12 33  1  0
 13 34  1  0
 13 35  1  0
 14 36  1  0
 17 37  1  0
 17 38  1  0
 20 39  1  0
 21 40  1  0
 23 41  1  0
M  END
>  <Energy>  (1263) 
259.40802602175512

>  <compound_id>  (1263) 
69259

>  <target_id>  (1263) 
1

>  <reference_id>  (1263) 
82

>  <inspiration_ids>  (1263) 
[82, 54]

>  <energy_score>  (1263) 
181.17484190306476

>  <distance_score>  (1263) 
3.7731949480309064

>  <path>  (1263) 
/opt/xchem-fragalysis-2/maxwin/BulkDock/SCRATCH/511022/C69259-P82/C69259-P82.minimised.mol

>  <scratch_subdir>  (1263) 
/opt/xchem-fragalysis-2/maxwin/BulkDock/SCRATCH/511022/C69259-P82

>  <fragmenstein_runtime>  (1263) 
8.157405138015747

>  <fragmenstein_outcome>  (1263) 
too moved

>  <fragmenstein_mode>  (1263) 
expansion

>  <fragmenstein_error>  (1263) 


$$$$
C69259-P54
     RDKit          3D

 41 42  0  0  0  0  0  0  0  0999 V2000
  -14.2923  -24.6363   26.1781 C   0  0  0  0  0  0  0  0  0  0  0  0
  -12.9030  -24.9611   26.2167 O   0  0  0  0  0  0  0  0  0  0  0  0
  -12.1350  -24.0400   26.8633 C   0  0  0  0  0  0  0  0  0  0  0  0
  -10.8500  -23.8110   26.4164 C   0  0  0  0  0  0  0  0  0  0  0  0
   -9.9746  -22.9522   26.9825 N   0  0  0  0  0  0  0  0  0  0  0  0
  -10.3847  -22.2972   28.0772 C   0  0  0  0  0  0  0  0  0  0  0  0
  -11.6024  -22.5248   28.6604 C   0  0  0  0  0  0  0  0  0  0  0  0
  -11.9610  -21.9321   29.9544 C   0  0  0  0  0  0  0  0  0  0  0  0
  -13.1433  -21.8412   30.1348 O   0  0  0  0  0  0  0  0  0  0  0  0
  -10.8713  -21.5434   30.7716 N   0  0  0  0  0  0  0  0  0  0  0  0
  -10.8417  -20.7923   32.0751 C   0  0  0  0  0  0  0  0  0  0  0  0
  -10.4484  -22.7108   31.6951 C   0  0  0  0  0  0  0  0  0  0  0  0
  -10.0104  -24.0217   30.9537 C   0  0  0  0  0  0  0  0  0  0  0  0
  -11.1013  -24.8918   30.5585 N   0  0  0  0  0  0  0  0  0  0  0  0
  -11.2384  -25.7878   29.4354 C   0  0  0  0  0  0  0  0  0  0  0  0
  -10.5172  -25.9833   28.4981 O   0  0  0  0  0  0  0  0  0  0  0  0
  -12.5760  -26.5018   29.4440 C   0  0  0  0  0  0  0  0  0  0  0  0
  -12.7029  -27.3438   30.6038 N   0  0  0  0  0  0  0  0  0  0  0  0
  -12.6761  -28.6811   30.5115 N   0  0  0  0  0  0  0  0  0  0  0  0
  -12.9367  -29.0435   31.7693 C   0  0  0  0  0  0  0  0  0  0  0  0
  -13.1259  -27.9047   32.5589 C   0  0  0  0  0  0  0  0  0  0  0  0
  -12.9874  -26.8014   31.8123 N   0  0  0  0  0  0  0  0  0  0  0  0
  -12.4945  -23.4054   28.0336 C   0  0  0  0  0  0  0  0  0  0  0  0
  -14.4562  -23.5960   25.8760 H   0  0  0  0  0  0  0  0  0  0  0  0
  -14.7616  -25.2826   25.4305 H   0  0  0  0  0  0  0  0  0  0  0  0
  -14.7684  -24.8453   27.1411 H   0  0  0  0  0  0  0  0  0  0  0  0
  -10.4493  -24.3521   25.5740 H   0  0  0  0  0  0  0  0  0  0  0  0
   -9.6802  -21.5898   28.4839 H   0  0  0  0  0  0  0  0  0  0  0  0
   -9.8620  -20.6566   32.5518 H   0  0  0  0  0  0  0  0  0  0  0  0
  -11.1330  -19.7741   31.7775 H   0  0  0  0  0  0  0  0  0  0  0  0
  -11.6424  -21.0719   32.7742 H   0  0  0  0  0  0  0  0  0  0  0  0
   -9.5247  -22.4775   32.2505 H   0  0  0  0  0  0  0  0  0  0  0  0
  -11.2606  -22.9927   32.3641 H   0  0  0  0  0  0  0  0  0  0  0  0
   -9.3645  -23.8194   30.0956 H   0  0  0  0  0  0  0  0  0  0  0  0
   -9.4221  -24.6192   31.6594 H   0  0  0  0  0  0  0  0  0  0  0  0
  -11.8657  -25.0522   31.2048 H   0  0  0  0  0  0  0  0  0  0  0  0
  -13.4019  -25.7862   29.4501 H   0  0  0  0  0  0  0  0  0  0  0  0
  -12.6706  -27.1261   28.5489 H   0  0  0  0  0  0  0  0  0  0  0  0
  -12.9762  -30.0911   32.0372 H   0  0  0  0  0  0  0  0  0  0  0  0
  -13.3613  -27.8371   33.6111 H   0  0  0  0  0  0  0  0  0  0  0  0
  -13.4410  -23.6285   28.5113 H   0  0  0  0  0  0  0  0  0  0  0  0
  1  2  1  0
  2  3  1  0
  3  4  2  0
  4  5  1  0
  5  6  2  0
  6  7  1  0
  7  8  1  0
  8  9  2  0
  8 10  1  0
 10 11  1  0
 10 12  1  0
 12 13  1  0
 13 14  1  0
 14 15  1  0
 15 16  2  0
 15 17  1  0
 17 18  1  0
 18 19  1  0
 19 20  2  0
 20 21  1  0
 21 22  2  0
  7 23  2  0
 23  3  1  0
 22 18  1  0
  1 24  1  0
  1 25  1  0
  1 26  1  0
  4 27  1  0
  6 28  1  0
 11 29  1  0
 11 30  1  0
 11 31  1  0
 12 32  1  0
 12 33  1  0
 13 34  1  0
 13 35  1  0
 14 36  1  0
 17 37  1  0
 17 38  1  0
 20 39  1  0
 21 40  1  0
 23 41  1  0
M  END
>  <Energy>  (1264) 
138.72483687129809

>  <compound_id>  (1264) 
69259

>  <target_id>  (1264) 
1

>  <reference_id>  (1264) 
54

>  <inspiration_ids>  (1264) 
[82, 54]

>  <energy_score>  (1264) 
60.49165275261004

>  <distance_score>  (1264) 
3.1160157733046137

>  <path>  (1264) 
/opt/xchem-fragalysis-2/maxwin/BulkDock/SCRATCH/511022/C69259-P54/C69259-P54.minimised.mol

>  <scratch_subdir>  (1264) 
/opt/xchem-fragalysis-2/maxwin/BulkDock/SCRATCH/511022/C69259-P54

>  <fragmenstein_runtime>  (1264) 
8.296476125717163

>  <fragmenstein_outcome>  (1264) 
too moved

>  <fragmenstein_mode>  (1264) 
expansion

>  <fragmenstein_error>  (1264) 


$$$$
C69260-P82
     RDKit          3D

 40 41  0  0  0  0  0  0  0  0999 V2000
   -9.8395  -26.3225   31.0942 C   0  0  0  0  0  0  0  0  0  0  0  0
  -10.2180  -26.2674   29.6600 C   0  0  0  0  0  0  0  0  0  0  0  0
  -11.2643  -27.0422   29.1795 C   0  0  0  0  0  0  0  0  0  0  0  0
  -11.7087  -26.8256   27.8811 C   0  0  0  0  0  0  0  0  0  0  0  0
  -11.3620  -25.5913   27.3413 C   0  0  0  0  0  0  0  0  0  0  0  0
  -12.3105  -24.6763   28.0117 C   0  0  0  0  0  0  0  0  0  0  0  0
  -13.4645  -24.9172   27.7811 O   0  0  0  0  0  0  0  0  0  0  0  0
  -11.7035  -23.7093   28.9123 N   0  0  0  0  0  0  0  0  0  0  0  0
  -11.4660  -22.4225   28.1966 C   0  0  0  0  0  0  0  0  0  0  0  0
  -12.3225  -22.7847   29.9224 C   0  0  0  0  0  0  0  0  0  0  0  0
  -12.6547  -23.6621   31.1420 C   0  0  0  0  0  0  0  0  0  0  0  0
  -13.4391  -23.0382   32.1738 N   0  0  0  0  0  0  0  0  0  0  0  0
  -14.5809  -22.1610   32.0944 C   0  0  0  0  0  0  0  0  0  0  0  0
  -15.1227  -21.6614   31.1463 O   0  0  0  0  0  0  0  0  0  0  0  0
  -15.0825  -21.8260   33.4717 C   0  0  0  0  0  0  0  0  0  0  0  0
  -14.3328  -20.6918   33.9519 N   0  0  0  0  0  0  0  0  0  0  0  0
  -12.9857  -20.7455   34.1060 N   0  0  0  0  0  0  0  0  0  0  0  0
  -12.7297  -19.5478   34.6402 C   0  0  0  0  0  0  0  0  0  0  0  0
  -13.9204  -18.8274   34.7831 C   0  0  0  0  0  0  0  0  0  0  0  0
  -14.9490  -19.5513   34.3304 N   0  0  0  0  0  0  0  0  0  0  0  0
  -10.1092  -25.1659   27.6694 C   0  0  0  0  0  0  0  0  0  0  0  0
   -9.5192  -25.4477   28.8509 N   0  0  0  0  0  0  0  0  0  0  0  0
   -9.1894  -25.4909   31.3771 H   0  0  0  0  0  0  0  0  0  0  0  0
  -10.7162  -26.2937   31.7448 H   0  0  0  0  0  0  0  0  0  0  0  0
   -9.3120  -27.2622   31.2165 H   0  0  0  0  0  0  0  0  0  0  0  0
  -11.7339  -27.7796   29.8075 H   0  0  0  0  0  0  0  0  0  0  0  0
  -12.5845  -27.3562   27.5171 H   0  0  0  0  0  0  0  0  0  0  0  0
  -11.1649  -22.6880   27.1821 H   0  0  0  0  0  0  0  0  0  0  0  0
  -10.6362  -21.8538   28.6176 H   0  0  0  0  0  0  0  0  0  0  0  0
  -12.3445  -21.8167   27.9856 H   0  0  0  0  0  0  0  0  0  0  0  0
  -11.6270  -22.0324   30.3305 H   0  0  0  0  0  0  0  0  0  0  0  0
  -13.2222  -22.3034   29.6274 H   0  0  0  0  0  0  0  0  0  0  0  0
  -13.1745  -24.5598   30.8285 H   0  0  0  0  0  0  0  0  0  0  0  0
  -11.7241  -23.9924   31.6174 H   0  0  0  0  0  0  0  0  0  0  0  0
  -13.2094  -23.1963   33.1506 H   0  0  0  0  0  0  0  0  0  0  0  0
  -16.1445  -21.5640   33.4250 H   0  0  0  0  0  0  0  0  0  0  0  0
  -14.9679  -22.6599   34.1679 H   0  0  0  0  0  0  0  0  0  0  0  0
  -11.7214  -19.2466   34.8744 H   0  0  0  0  0  0  0  0  0  0  0  0
  -14.0796  -17.8293   35.1674 H   0  0  0  0  0  0  0  0  0  0  0  0
   -9.7414  -24.2892   27.1539 H   0  0  0  0  0  0  0  0  0  0  0  0
  1  2  1  0
  2  3  2  0
  3  4  1  0
  4  5  2  0
  5  6  1  0
  6  7  2  0
  6  8  1  0
  8  9  1  0
  8 10  1  0
 10 11  1  0
 11 12  1  0
 12 13  1  0
 13 14  2  0
 13 15  1  0
 15 16  1  0
 16 17  1  0
 17 18  2  0
 18 19  1  0
 19 20  2  0
  5 21  1  0
 21 22  2  0
 22  2  1  0
 20 16  1  0
  1 23  1  0
  1 24  1  0
  1 25  1  0
  3 26  1  0
  4 27  1  0
  9 28  1  0
  9 29  1  0
  9 30  1  0
 10 31  1  0
 10 32  1  0
 11 33  1  0
 11 34  1  0
 12 35  1  0
 15 36  1  0
 15 37  1  0
 18 38  1  0
 19 39  1  0
 21 40  1  0
M  END
>  <Energy>  (1265) 
197.37769419279627

>  <compound_id>  (1265) 
69260

>  <target_id>  (1265) 
1

>  <reference_id>  (1265) 
82

>  <inspiration_ids>  (1265) 
[82, 54]

>  <energy_score>  (1265) 
114.84979959270166

>  <distance_score>  (1265) 
4.387131615535072

>  <path>  (1265) 
/opt/xchem-fragalysis-2/maxwin/BulkDock/SCRATCH/511022/C69260-P82/C69260-P82.minimised.mol

>  <scratch_subdir>  (1265) 
/opt/xchem-fragalysis-2/maxwin/BulkDock/SCRATCH/511022/C69260-P82

>  <fragmenstein_runtime>  (1265) 
8.787222385406494

>  <fragmenstein_outcome>  (1265) 
too moved

>  <fragmenstein_mode>  (1265) 
expansion

>  <fragmenstein_error>  (1265) 


$$$$
C69260-P54
     RDKit          3D

 40 41  0  0  0  0  0  0  0  0999 V2000
  -10.5753  -22.2136   30.7327 C   0  0  0  0  0  0  0  0  0  0  0  0
  -11.0143  -23.1465   29.6467 C   0  0  0  0  0  0  0  0  0  0  0  0
  -11.0589  -24.5117   29.8974 C   0  0  0  0  0  0  0  0  0  0  0  0
  -11.6072  -25.3485   28.9331 C   0  0  0  0  0  0  0  0  0  0  0  0
  -12.0757  -24.7997   27.7409 C   0  0  0  0  0  0  0  0  0  0  0  0
  -12.8708  -25.6824   26.8592 C   0  0  0  0  0  0  0  0  0  0  0  0
  -12.3010  -26.3583   26.0462 O   0  0  0  0  0  0  0  0  0  0  0  0
  -14.2465  -25.6314   27.2205 N   0  0  0  0  0  0  0  0  0  0  0  0
  -14.9673  -24.6020   26.3830 C   0  0  0  0  0  0  0  0  0  0  0  0
  -15.4201  -26.4894   26.7804 C   0  0  0  0  0  0  0  0  0  0  0  0
  -15.3518  -27.7779   27.6401 C   0  0  0  0  0  0  0  0  0  0  0  0
  -15.4274  -27.4523   29.0497 N   0  0  0  0  0  0  0  0  0  0  0  0
  -16.1339  -28.0888   30.1284 C   0  0  0  0  0  0  0  0  0  0  0  0
  -16.9050  -29.0059   30.1245 O   0  0  0  0  0  0  0  0  0  0  0  0
  -15.8790  -27.3558   31.4413 C   0  0  0  0  0  0  0  0  0  0  0  0
  -14.5213  -27.5529   31.8999 N   0  0  0  0  0  0  0  0  0  0  0  0
  -14.2227  -28.4027   32.9040 N   0  0  0  0  0  0  0  0  0  0  0  0
  -12.8912  -28.3300   32.9389 C   0  0  0  0  0  0  0  0  0  0  0  0
  -12.4548  -27.3674   32.0258 C   0  0  0  0  0  0  0  0  0  0  0  0
  -13.4983  -26.8120   31.3996 N   0  0  0  0  0  0  0  0  0  0  0  0
  -11.9053  -23.4453   27.5244 C   0  0  0  0  0  0  0  0  0  0  0  0
  -11.3972  -22.6078   28.4634 N   0  0  0  0  0  0  0  0  0  0  0  0
  -10.6858  -21.1744   30.4102 H   0  0  0  0  0  0  0  0  0  0  0  0
   -9.5300  -22.4024   30.9927 H   0  0  0  0  0  0  0  0  0  0  0  0
  -11.1924  -22.3519   31.6255 H   0  0  0  0  0  0  0  0  0  0  0  0
  -10.7218  -24.9039   30.8494 H   0  0  0  0  0  0  0  0  0  0  0  0
  -11.7189  -26.4113   29.1254 H   0  0  0  0  0  0  0  0  0  0  0  0
  -15.9197  -24.2590   26.8115 H   0  0  0  0  0  0  0  0  0  0  0  0
  -15.0120  -24.8483   25.3134 H   0  0  0  0  0  0  0  0  0  0  0  0
  -14.3534  -23.6949   26.3975 H   0  0  0  0  0  0  0  0  0  0  0  0
  -15.3121  -26.8174   25.7361 H   0  0  0  0  0  0  0  0  0  0  0  0
  -16.4208  -26.0839   27.0005 H   0  0  0  0  0  0  0  0  0  0  0  0
  -14.4046  -28.3041   27.4813 H   0  0  0  0  0  0  0  0  0  0  0  0
  -16.1722  -28.4575   27.3893 H   0  0  0  0  0  0  0  0  0  0  0  0
  -14.7895  -26.7551   29.4350 H   0  0  0  0  0  0  0  0  0  0  0  0
  -16.0550  -26.2819   31.3211 H   0  0  0  0  0  0  0  0  0  0  0  0
  -16.5603  -27.7293   32.2132 H   0  0  0  0  0  0  0  0  0  0  0  0
  -12.3288  -28.9577   33.6167 H   0  0  0  0  0  0  0  0  0  0  0  0
  -11.4568  -27.0325   31.8059 H   0  0  0  0  0  0  0  0  0  0  0  0
  -12.2144  -22.9601   26.6033 H   0  0  0  0  0  0  0  0  0  0  0  0
  1  2  1  0
  2  3  2  0
  3  4  1  0
  4  5  2  0
  5  6  1  0
  6  7  2  0
  6  8  1  0
  8  9  1  0
  8 10  1  0
 10 11  1  0
 11 12  1  0
 12 13  1  0
 13 14  2  0
 13 15  1  0
 15 16  1  0
 16 17  1  0
 17 18  2  0
 18 19  1  0
 19 20  2  0
  5 21  1  0
 21 22  2  0
 22  2  1  0
 20 16  1  0
  1 23  1  0
  1 24  1  0
  1 25  1  0
  3 26  1  0
  4 27  1  0
  9 28  1  0
  9 29  1  0
  9 30  1  0
 10 31  1  0
 10 32  1  0
 11 33  1  0
 11 34  1  0
 12 35  1  0
 15 36  1  0
 15 37  1  0
 18 38  1  0
 19 39  1  0
 21 40  1  0
M  END
>  <Energy>  (1266) 
121.96659797127059

>  <compound_id>  (1266) 
69260

>  <target_id>  (1266) 
1

>  <reference_id>  (1266) 
54

>  <inspiration_ids>  (1266) 
[82, 54]

>  <energy_score>  (1266) 
39.4387033711744

>  <distance_score>  (1266) 
3.042533703182078

>  <path>  (1266) 
/opt/xchem-fragalysis-2/maxwin/BulkDock/SCRATCH/511022/C69260-P54/C69260-P54.minimised.mol

>  <scratch_subdir>  (1266) 
/opt/xchem-fragalysis-2/maxwin/BulkDock/SCRATCH/511022/C69260-P54

>  <fragmenstein_runtime>  (1266) 
8.790099382400513

>  <fragmenstein_outcome>  (1266) 
too moved

>  <fragmenstein_mode>  (1266) 
expansion

>  <fragmenstein_error>  (1266) 


$$$$
C69261-P82
     RDKit          3D

 41 42  0  0  0  0  0  0  0  0999 V2000
  -14.2418  -29.1002   24.1903 C   0  0  0  0  0  0  0  0  0  0  0  0
  -13.8156  -27.7922   24.7757 N   0  0  0  0  0  0  0  0  0  0  0  0
  -14.1833  -28.5136   26.0881 C   0  0  0  0  0  0  0  0  0  0  0  0
  -13.0094  -29.1357   26.8905 C   0  0  0  0  0  0  0  0  0  0  0  0
  -12.2255  -28.1478   27.6130 N   0  0  0  0  0  0  0  0  0  0  0  0
  -12.0344  -27.9474   29.0019 C   0  0  0  0  0  0  0  0  0  0  0  0
  -12.5310  -28.4903   29.9365 O   0  0  0  0  0  0  0  0  0  0  0  0
  -11.0068  -26.8230   29.3239 C   0  0  0  0  0  0  0  0  0  0  0  0
  -11.2785  -25.8236   30.4147 C   0  0  0  0  0  0  0  0  0  0  0  0
  -12.1373  -24.7477   30.2824 C   0  0  0  0  0  0  0  0  0  0  0  0
  -12.2722  -23.7725   31.2198 N   0  0  0  0  0  0  0  0  0  0  0  0
  -11.6068  -23.9851   32.3705 C   0  0  0  0  0  0  0  0  0  0  0  0
  -10.7498  -25.0525   32.5228 C   0  0  0  0  0  0  0  0  0  0  0  0
  -10.5272  -25.9437   31.5359 N   0  0  0  0  0  0  0  0  0  0  0  0
  -12.5340  -27.2019   24.8853 C   0  0  0  0  0  0  0  0  0  0  0  0
  -11.4457  -27.6386   24.6172 O   0  0  0  0  0  0  0  0  0  0  0  0
  -12.5585  -25.8634   25.5166 C   0  0  0  0  0  0  0  0  0  0  0  0
  -13.6422  -25.0287   25.4306 C   0  0  0  0  0  0  0  0  0  0  0  0
  -13.6358  -23.8193   25.9978 N   0  0  0  0  0  0  0  0  0  0  0  0
  -12.5533  -23.4565   26.7203 C   0  0  0  0  0  0  0  0  0  0  0  0
  -11.4654  -24.2508   26.9495 C   0  0  0  0  0  0  0  0  0  0  0  0
  -10.4163  -23.8177   27.7402 N   0  0  0  0  0  0  0  0  0  0  0  0
  -11.4396  -25.4238   26.2305 C   0  0  0  0  0  0  0  0  0  0  0  0
  -13.9625  -29.0142   23.1310 H   0  0  0  0  0  0  0  0  0  0  0  0
  -13.6886  -29.9915   24.5154 H   0  0  0  0  0  0  0  0  0  0  0  0
  -15.3347  -29.2180   24.1669 H   0  0  0  0  0  0  0  0  0  0  0  0
  -14.5420  -27.6748   26.7068 H   0  0  0  0  0  0  0  0  0  0  0  0
  -15.0754  -29.1664   26.1023 H   0  0  0  0  0  0  0  0  0  0  0  0
  -13.4292  -29.8108   27.6447 H   0  0  0  0  0  0  0  0  0  0  0  0
  -12.3302  -29.7177   26.2719 H   0  0  0  0  0  0  0  0  0  0  0  0
  -11.5787  -27.5694   27.1087 H   0  0  0  0  0  0  0  0  0  0  0  0
  -10.6857  -26.3173   28.4296 H   0  0  0  0  0  0  0  0  0  0  0  0
  -10.1034  -27.3160   29.6791 H   0  0  0  0  0  0  0  0  0  0  0  0
  -12.7493  -24.6263   29.4027 H   0  0  0  0  0  0  0  0  0  0  0  0
  -11.7867  -23.2766   33.1693 H   0  0  0  0  0  0  0  0  0  0  0  0
  -10.2148  -25.2408   33.4417 H   0  0  0  0  0  0  0  0  0  0  0  0
  -14.5393  -25.2803   24.8748 H   0  0  0  0  0  0  0  0  0  0  0  0
  -12.5864  -22.4821   27.1845 H   0  0  0  0  0  0  0  0  0  0  0  0
  -10.6718  -23.0843   28.4012 H   0  0  0  0  0  0  0  0  0  0  0  0
   -9.8164  -24.5195   28.1515 H   0  0  0  0  0  0  0  0  0  0  0  0
  -10.5740  -26.0651   26.2925 H   0  0  0  0  0  0  0  0  0  0  0  0
  1  2  1  0
  2  3  1  0
  3  4  1  0
  4  5  1  0
  5  6  1  0
  6  7  2  0
  6  8  1  0
  8  9  1  0
  9 10  2  0
 10 11  1  0
 11 12  2  0
 12 13  1  0
 13 14  2  0
  2 15  1  0
 15 16  2  0
 15 17  1  0
 17 18  2  0
 18 19  1  0
 19 20  2  0
 20 21  1  0
 21 22  1  0
 21 23  2  0
 14  9  1  0
 23 17  1  0
  1 24  1  0
  1 25  1  0
  1 26  1  0
  3 27  1  0
  3 28  1  0
  4 29  1  0
  4 30  1  0
  5 31  1  0
  8 32  1  0
  8 33  1  0
 10 34  1  0
 12 35  1  0
 13 36  1  0
 18 37  1  0
 20 38  1  0
 22 39  1  0
 22 40  1  0
 23 41  1  0
M  END
>  <Energy>  (1267) 
184.94344324437924

>  <compound_id>  (1267) 
69261

>  <target_id>  (1267) 
1

>  <reference_id>  (1267) 
82

>  <inspiration_ids>  (1267) 
[82, 54]

>  <energy_score>  (1267) 
48.43728326405997

>  <distance_score>  (1267) 
3.398946124536694

>  <path>  (1267) 
/opt/xchem-fragalysis-2/maxwin/BulkDock/SCRATCH/511022/C69261-P82/C69261-P82.minimised.mol

>  <scratch_subdir>  (1267) 
/opt/xchem-fragalysis-2/maxwin/BulkDock/SCRATCH/511022/C69261-P82

>  <fragmenstein_runtime>  (1267) 
7.8420491218566895

>  <fragmenstein_outcome>  (1267) 
too moved

>  <fragmenstein_mode>  (1267) 
expansion

>  <fragmenstein_error>  (1267) 


$$$$
C69261-P54
     RDKit          3D

 41 42  0  0  0  0  0  0  0  0999 V2000
  -15.5657  -25.9103   25.8810 C   0  0  0  0  0  0  0  0  0  0  0  0
  -14.5449  -25.1010   26.5943 N   0  0  0  0  0  0  0  0  0  0  0  0
  -15.2550  -25.7294   27.8425 C   0  0  0  0  0  0  0  0  0  0  0  0
  -14.7478  -27.0980   28.4007 C   0  0  0  0  0  0  0  0  0  0  0  0
  -13.3716  -27.0273   28.8178 N   0  0  0  0  0  0  0  0  0  0  0  0
  -12.7823  -26.5819   30.0501 C   0  0  0  0  0  0  0  0  0  0  0  0
  -13.2885  -26.2306   31.0738 O   0  0  0  0  0  0  0  0  0  0  0  0
  -11.2699  -26.5306   29.8944 C   0  0  0  0  0  0  0  0  0  0  0  0
  -10.5679  -25.3555   30.5537 C   0  0  0  0  0  0  0  0  0  0  0  0
   -9.8380  -24.4398   29.8030 C   0  0  0  0  0  0  0  0  0  0  0  0
   -9.1250  -23.4114   30.3293 N   0  0  0  0  0  0  0  0  0  0  0  0
   -9.0890  -23.3604   31.6691 C   0  0  0  0  0  0  0  0  0  0  0  0
   -9.6977  -24.3245   32.4317 C   0  0  0  0  0  0  0  0  0  0  0  0
  -10.4497  -25.3269   31.8973 N   0  0  0  0  0  0  0  0  0  0  0  0
  -13.1327  -25.2614   26.6934 C   0  0  0  0  0  0  0  0  0  0  0  0
  -12.4143  -26.1472   26.2978 O   0  0  0  0  0  0  0  0  0  0  0  0
  -12.4121  -24.0995   27.2955 C   0  0  0  0  0  0  0  0  0  0  0  0
  -11.2921  -23.6219   26.6379 C   0  0  0  0  0  0  0  0  0  0  0  0
  -10.5592  -22.5664   27.0474 N   0  0  0  0  0  0  0  0  0  0  0  0
  -10.9651  -21.9301   28.1641 C   0  0  0  0  0  0  0  0  0  0  0  0
  -11.9785  -22.3976   28.9845 C   0  0  0  0  0  0  0  0  0  0  0  0
  -12.3702  -21.6954   30.1293 N   0  0  0  0  0  0  0  0  0  0  0  0
  -12.7231  -23.4865   28.5061 C   0  0  0  0  0  0  0  0  0  0  0  0
  -15.2702  -25.8034   24.8297 H   0  0  0  0  0  0  0  0  0  0  0  0
  -15.5226  -26.9980   26.0047 H   0  0  0  0  0  0  0  0  0  0  0  0
  -16.5739  -25.4747   25.9153 H   0  0  0  0  0  0  0  0  0  0  0  0
  -15.0461  -25.0077   28.6367 H   0  0  0  0  0  0  0  0  0  0  0  0
  -16.3594  -25.6907   27.8349 H   0  0  0  0  0  0  0  0  0  0  0  0
  -15.3433  -27.3518   29.2842 H   0  0  0  0  0  0  0  0  0  0  0  0
  -14.8301  -27.9162   27.6824 H   0  0  0  0  0  0  0  0  0  0  0  0
  -12.6351  -27.1667   28.1282 H   0  0  0  0  0  0  0  0  0  0  0  0
  -10.9142  -27.4764   30.3117 H   0  0  0  0  0  0  0  0  0  0  0  0
  -10.9875  -26.5384   28.8360 H   0  0  0  0  0  0  0  0  0  0  0  0
   -9.7615  -24.5227   28.7253 H   0  0  0  0  0  0  0  0  0  0  0  0
   -8.5191  -22.5535   32.1132 H   0  0  0  0  0  0  0  0  0  0  0  0
   -9.6064  -24.3122   33.5104 H   0  0  0  0  0  0  0  0  0  0  0  0
  -10.9083  -24.0886   25.7421 H   0  0  0  0  0  0  0  0  0  0  0  0
  -10.4031  -21.0362   28.4157 H   0  0  0  0  0  0  0  0  0  0  0  0
  -11.6079  -21.1635   30.5472 H   0  0  0  0  0  0  0  0  0  0  0  0
  -12.7864  -22.2859   30.8511 H   0  0  0  0  0  0  0  0  0  0  0  0
  -13.5564  -23.8312   29.0898 H   0  0  0  0  0  0  0  0  0  0  0  0
  1  2  1  0
  2  3  1  0
  3  4  1  0
  4  5  1  0
  5  6  1  0
  6  7  2  0
  6  8  1  0
  8  9  1  0
  9 10  2  0
 10 11  1  0
 11 12  2  0
 12 13  1  0
 13 14  2  0
  2 15  1  0
 15 16  2  0
 15 17  1  0
 17 18  2  0
 18 19  1  0
 19 20  2  0
 20 21  1  0
 21 22  1  0
 21 23  2  0
 14  9  1  0
 23 17  1  0
  1 24  1  0
  1 25  1  0
  1 26  1  0
  3 27  1  0
  3 28  1  0
  4 29  1  0
  4 30  1  0
  5 31  1  0
  8 32  1  0
  8 33  1  0
 10 34  1  0
 12 35  1  0
 13 36  1  0
 18 37  1  0
 20 38  1  0
 22 39  1  0
 22 40  1  0
 23 41  1  0
M  END
>  <Energy>  (1268) 
179.08171759984276

>  <compound_id>  (1268) 
69261

>  <target_id>  (1268) 
1

>  <reference_id>  (1268) 
54

>  <inspiration_ids>  (1268) 
[82, 54]

>  <energy_score>  (1268) 
42.57555761952281

>  <distance_score>  (1268) 
2.5164290278588854

>  <path>  (1268) 
/opt/xchem-fragalysis-2/maxwin/BulkDock/SCRATCH/511022/C69261-P54/C69261-P54.minimised.mol

>  <scratch_subdir>  (1268) 
/opt/xchem-fragalysis-2/maxwin/BulkDock/SCRATCH/511022/C69261-P54

>  <fragmenstein_runtime>  (1268) 
7.5896008014678955

>  <fragmenstein_outcome>  (1268) 
too moved

>  <fragmenstein_mode>  (1268) 
expansion

>  <fragmenstein_error>  (1268) 


$$$$
C69263-P82
     RDKit          3D

 44 45  0  0  0  0  0  0  0  0999 V2000
  -10.5419  -28.5808   31.6374 C   0  0  0  0  0  0  0  0  0  0  0  0
   -9.9531  -27.4759   30.8455 C   0  0  0  0  0  0  0  0  0  0  0  0
  -11.0150  -26.9344   30.1100 O   0  0  0  0  0  0  0  0  0  0  0  0
  -11.7185  -26.0333   30.8619 C   0  0  0  0  0  0  0  0  0  0  0  0
  -11.5399  -25.9759   32.2480 N   0  0  0  0  0  0  0  0  0  0  0  0
  -12.2687  -25.1434   33.0402 C   0  0  0  0  0  0  0  0  0  0  0  0
  -13.1614  -24.2866   32.5133 C   0  0  0  0  0  0  0  0  0  0  0  0
  -13.2524  -24.3461   31.1161 C   0  0  0  0  0  0  0  0  0  0  0  0
  -12.5808  -25.2455   30.2165 C   0  0  0  0  0  0  0  0  0  0  0  0
  -12.7697  -25.1596   28.7050 C   0  0  0  0  0  0  0  0  0  0  0  0
  -13.6689  -25.6696   28.0987 O   0  0  0  0  0  0  0  0  0  0  0  0
  -11.7709  -24.3171   28.2803 N   0  0  0  0  0  0  0  0  0  0  0  0
  -10.5599  -25.1127   27.8525 C   0  0  0  0  0  0  0  0  0  0  0  0
  -11.5423  -23.6870   27.0064 C   0  0  0  0  0  0  0  0  0  0  0  0
  -11.8658  -22.2558   27.5914 C   0  0  0  0  0  0  0  0  0  0  0  0
  -11.3974  -22.0290   28.9964 N   0  0  0  0  0  0  0  0  0  0  0  0
  -12.1350  -21.8908   30.2307 C   0  0  0  0  0  0  0  0  0  0  0  0
  -13.3133  -21.8407   30.4336 O   0  0  0  0  0  0  0  0  0  0  0  0
  -11.3572  -21.9120   31.5636 C   0  0  0  0  0  0  0  0  0  0  0  0
  -10.7187  -23.2078   31.8669 N   0  0  0  0  0  0  0  0  0  0  0  0
  -10.1665  -24.0892   30.9797 C   0  0  0  0  0  0  0  0  0  0  0  0
   -9.2132  -24.7998   31.4966 N   0  0  0  0  0  0  0  0  0  0  0  0
   -9.3759  -24.5304   32.7888 C   0  0  0  0  0  0  0  0  0  0  0  0
  -10.1690  -23.4850   33.0375 N   0  0  0  0  0  0  0  0  0  0  0  0
  -11.4235  -29.0780   31.2290 H   0  0  0  0  0  0  0  0  0  0  0  0
   -9.8692  -29.3428   32.0140 H   0  0  0  0  0  0  0  0  0  0  0  0
  -10.8478  -28.0152   32.5009 H   0  0  0  0  0  0  0  0  0  0  0  0
   -9.1521  -27.7340   30.1856 H   0  0  0  0  0  0  0  0  0  0  0  0
   -9.4464  -26.7885   31.4925 H   0  0  0  0  0  0  0  0  0  0  0  0
  -12.0437  -25.1620   34.0960 H   0  0  0  0  0  0  0  0  0  0  0  0
  -13.7685  -23.6189   33.1070 H   0  0  0  0  0  0  0  0  0  0  0  0
  -14.0434  -23.7060   30.7829 H   0  0  0  0  0  0  0  0  0  0  0  0
   -9.6670  -24.4891   27.9027 H   0  0  0  0  0  0  0  0  0  0  0  0
  -10.3138  -25.8988   28.5431 H   0  0  0  0  0  0  0  0  0  0  0  0
  -10.7073  -25.6796   26.9161 H   0  0  0  0  0  0  0  0  0  0  0  0
  -12.3116  -23.9662   26.2745 H   0  0  0  0  0  0  0  0  0  0  0  0
  -10.5777  -23.6118   26.5073 H   0  0  0  0  0  0  0  0  0  0  0  0
  -11.5343  -21.4852   26.9204 H   0  0  0  0  0  0  0  0  0  0  0  0
  -12.9357  -22.2713   27.6874 H   0  0  0  0  0  0  0  0  0  0  0  0
  -10.4277  -21.9520   29.1880 H   0  0  0  0  0  0  0  0  0  0  0  0
  -10.6328  -21.0997   31.6229 H   0  0  0  0  0  0  0  0  0  0  0  0
  -12.0571  -21.7306   32.3899 H   0  0  0  0  0  0  0  0  0  0  0  0
  -10.3951  -24.0618   29.9488 H   0  0  0  0  0  0  0  0  0  0  0  0
   -8.9316  -25.1423   33.5574 H   0  0  0  0  0  0  0  0  0  0  0  0
  1  2  1  0
  2  3  1  0
  3  4  1  0
  4  5  2  0
  5  6  1  0
  6  7  2  0
  7  8  1  0
  8  9  2  0
  9 10  1  0
 10 11  2  0
 10 12  1  0
 12 13  1  0
 12 14  1  0
 14 15  1  0
 15 16  1  0
 16 17  1  0
 17 18  2  0
 17 19  1  0
 19 20  1  0
 20 21  1  0
 21 22  2  0
 22 23  1  0
 23 24  2  0
  9  4  1  0
 24 20  1  0
  1 25  1  0
  1 26  1  0
  1 27  1  0
  2 28  1  0
  2 29  1  0
  6 30  1  0
  7 31  1  0
  8 32  1  0
 13 33  1  0
 13 34  1  0
 13 35  1  0
 14 36  1  0
 14 37  1  0
 15 38  1  0
 15 39  1  0
 16 40  1  0
 19 41  1  0
 19 42  1  0
 21 43  1  0
 23 44  1  0
M  END
>  <Energy>  (1269) 
260.02235136165524

>  <compound_id>  (1269) 
69263

>  <target_id>  (1269) 
1

>  <reference_id>  (1269) 
82

>  <inspiration_ids>  (1269) 
[82, 54]

>  <energy_score>  (1269) 
186.13381514617345

>  <distance_score>  (1269) 
1.9370646688599444

>  <path>  (1269) 
/opt/xchem-fragalysis-2/maxwin/BulkDock/SCRATCH/511022/C69263-P82/C69263-P82.minimised.mol

>  <scratch_subdir>  (1269) 
/opt/xchem-fragalysis-2/maxwin/BulkDock/SCRATCH/511022/C69263-P82

>  <fragmenstein_runtime>  (1269) 
9.624560832977295

>  <fragmenstein_outcome>  (1269) 
too moved

>  <fragmenstein_mode>  (1269) 
expansion

>  <fragmenstein_error>  (1269) 


$$$$
C69263-P54
     RDKit          3D

 44 45  0  0  0  0  0  0  0  0999 V2000
  -15.7721  -26.8506   27.9372 C   0  0  0  0  0  0  0  0  0  0  0  0
  -14.5686  -27.6163   27.4102 C   0  0  0  0  0  0  0  0  0  0  0  0
  -13.3576  -26.8811   27.5969 O   0  0  0  0  0  0  0  0  0  0  0  0
  -12.9038  -26.8828   28.8980 C   0  0  0  0  0  0  0  0  0  0  0  0
  -13.0096  -28.0483   29.5869 N   0  0  0  0  0  0  0  0  0  0  0  0
  -12.5150  -28.0800   30.8400 C   0  0  0  0  0  0  0  0  0  0  0  0
  -11.8806  -27.0069   31.4312 C   0  0  0  0  0  0  0  0  0  0  0  0
  -11.7203  -25.8414   30.6862 C   0  0  0  0  0  0  0  0  0  0  0  0
  -12.2761  -25.7492   29.4048 C   0  0  0  0  0  0  0  0  0  0  0  0
  -12.3352  -24.4309   28.6996 C   0  0  0  0  0  0  0  0  0  0  0  0
  -13.2792  -24.2274   27.9878 O   0  0  0  0  0  0  0  0  0  0  0  0
  -11.2666  -23.5785   29.0798 N   0  0  0  0  0  0  0  0  0  0  0  0
  -10.1212  -23.7220   28.1139 C   0  0  0  0  0  0  0  0  0  0  0  0
  -11.0281  -22.1032   28.8040 C   0  0  0  0  0  0  0  0  0  0  0  0
  -11.9396  -21.3011   29.7685 C   0  0  0  0  0  0  0  0  0  0  0  0
  -11.6100  -21.4886   31.1560 N   0  0  0  0  0  0  0  0  0  0  0  0
  -11.1138  -20.5679   32.1387 C   0  0  0  0  0  0  0  0  0  0  0  0
  -10.9211  -19.3881   32.0766 O   0  0  0  0  0  0  0  0  0  0  0  0
  -10.6887  -21.2855   33.4166 C   0  0  0  0  0  0  0  0  0  0  0  0
   -9.7669  -22.3932   33.2256 N   0  0  0  0  0  0  0  0  0  0  0  0
   -9.2068  -22.8547   32.0760 C   0  0  0  0  0  0  0  0  0  0  0  0
   -8.7145  -24.0495   32.2673 N   0  0  0  0  0  0  0  0  0  0  0  0
   -8.8074  -24.1995   33.6085 C   0  0  0  0  0  0  0  0  0  0  0  0
   -9.4635  -23.2279   34.2485 N   0  0  0  0  0  0  0  0  0  0  0  0
  -16.6999  -27.3765   27.6942 H   0  0  0  0  0  0  0  0  0  0  0  0
  -15.7198  -26.7271   29.0235 H   0  0  0  0  0  0  0  0  0  0  0  0
  -15.8111  -25.8467   27.5017 H   0  0  0  0  0  0  0  0  0  0  0  0
  -14.5154  -28.6295   27.8251 H   0  0  0  0  0  0  0  0  0  0  0  0
  -14.6870  -27.7398   26.3278 H   0  0  0  0  0  0  0  0  0  0  0  0
  -12.6376  -29.0244   31.3648 H   0  0  0  0  0  0  0  0  0  0  0  0
  -11.4986  -27.0856   32.4432 H   0  0  0  0  0  0  0  0  0  0  0  0
  -11.1998  -24.9963   31.1278 H   0  0  0  0  0  0  0  0  0  0  0  0
  -10.3306  -23.3862   27.0864 H   0  0  0  0  0  0  0  0  0  0  0  0
   -9.1572  -23.3863   28.5209 H   0  0  0  0  0  0  0  0  0  0  0  0
   -9.9711  -24.8058   27.9927 H   0  0  0  0  0  0  0  0  0  0  0  0
  -11.3740  -21.8240   27.7964 H   0  0  0  0  0  0  0  0  0  0  0  0
  -10.0153  -21.7425   29.0148 H   0  0  0  0  0  0  0  0  0  0  0  0
  -11.8570  -20.2345   29.5419 H   0  0  0  0  0  0  0  0  0  0  0  0
  -12.9717  -21.6314   29.6734 H   0  0  0  0  0  0  0  0  0  0  0  0
  -11.7229  -22.4027   31.5854 H   0  0  0  0  0  0  0  0  0  0  0  0
  -11.5642  -21.6432   33.9518 H   0  0  0  0  0  0  0  0  0  0  0  0
  -10.1791  -20.5699   34.0580 H   0  0  0  0  0  0  0  0  0  0  0  0
   -9.2203  -22.3329   31.1353 H   0  0  0  0  0  0  0  0  0  0  0  0
   -8.4082  -25.0602   34.1245 H   0  0  0  0  0  0  0  0  0  0  0  0
  1  2  1  0
  2  3  1  0
  3  4  1  0
  4  5  2  0
  5  6  1  0
  6  7  2  0
  7  8  1  0
  8  9  2  0
  9 10  1  0
 10 11  2  0
 10 12  1  0
 12 13  1  0
 12 14  1  0
 14 15  1  0
 15 16  1  0
 16 17  1  0
 17 18  2  0
 17 19  1  0
 19 20  1  0
 20 21  1  0
 21 22  2  0
 22 23  1  0
 23 24  2  0
  9  4  1  0
 24 20  1  0
  1 25  1  0
  1 26  1  0
  1 27  1  0
  2 28  1  0
  2 29  1  0
  6 30  1  0
  7 31  1  0
  8 32  1  0
 13 33  1  0
 13 34  1  0
 13 35  1  0
 14 36  1  0
 14 37  1  0
 15 38  1  0
 15 39  1  0
 16 40  1  0
 19 41  1  0
 19 42  1  0
 21 43  1  0
 23 44  1  0
M  END
>  <Energy>  (1270) 
109.75591087743349

>  <compound_id>  (1270) 
69263

>  <target_id>  (1270) 
1

>  <reference_id>  (1270) 
54

>  <inspiration_ids>  (1270) 
[82, 54]

>  <energy_score>  (1270) 
35.86737466195518

>  <distance_score>  (1270) 
2.5587554158263845

>  <path>  (1270) 
/opt/xchem-fragalysis-2/maxwin/BulkDock/SCRATCH/511022/C69263-P54/C69263-P54.minimised.mol

>  <scratch_subdir>  (1270) 
/opt/xchem-fragalysis-2/maxwin/BulkDock/SCRATCH/511022/C69263-P54

>  <fragmenstein_runtime>  (1270) 
10.586308479309082

>  <fragmenstein_outcome>  (1270) 
too moved

>  <fragmenstein_mode>  (1270) 
expansion

>  <fragmenstein_error>  (1270) 


$$$$
C69264-P82
     RDKit          3D

 44 45  0  0  0  0  0  0  0  0999 V2000
  -11.4743  -26.6816   29.3331 C   0  0  0  0  0  0  0  0  0  0  0  0
  -11.5383  -25.7290   30.5126 C   0  0  0  0  0  0  0  0  0  0  0  0
  -12.6395  -24.8661   30.3569 O   0  0  0  0  0  0  0  0  0  0  0  0
  -13.1200  -24.0105   31.3441 C   0  0  0  0  0  0  0  0  0  0  0  0
  -13.2074  -24.4396   32.6141 N   0  0  0  0  0  0  0  0  0  0  0  0
  -14.0476  -23.7423   33.4109 C   0  0  0  0  0  0  0  0  0  0  0  0
  -14.7880  -22.6324   33.0174 C   0  0  0  0  0  0  0  0  0  0  0  0
  -14.6181  -22.1434   31.7282 C   0  0  0  0  0  0  0  0  0  0  0  0
  -13.7434  -22.8226   30.8843 C   0  0  0  0  0  0  0  0  0  0  0  0
  -12.9786  -22.1326   29.7549 C   0  0  0  0  0  0  0  0  0  0  0  0
  -13.0723  -21.0103   29.3204 O   0  0  0  0  0  0  0  0  0  0  0  0
  -12.0196  -22.7238   29.2028 N   0  0  0  0  0  0  0  0  0  0  0  0
  -12.0208  -23.5264   27.9853 C   0  0  0  0  0  0  0  0  0  0  0  0
  -10.9092  -22.5648   29.8514 C   0  0  0  0  0  0  0  0  0  0  0  0
  -11.3246  -21.3440   31.2196 C   0  0  0  0  0  0  0  0  0  0  0  0
  -10.2463  -21.4333   32.0014 N   0  0  0  0  0  0  0  0  0  0  0  0
   -9.5482  -20.4744   32.7220 C   0  0  0  0  0  0  0  0  0  0  0  0
   -9.7685  -19.3328   32.9097 O   0  0  0  0  0  0  0  0  0  0  0  0
   -8.1195  -21.4727   33.1816 C   0  0  0  0  0  0  0  0  0  0  0  0
   -8.7191  -23.2341   33.1545 N   0  0  0  0  0  0  0  0  0  0  0  0
  -10.1490  -23.4885   33.1005 N   0  0  0  0  0  0  0  0  0  0  0  0
  -10.2594  -24.8122   33.0818 C   0  0  0  0  0  0  0  0  0  0  0  0
   -9.1065  -25.3076   32.5628 C   0  0  0  0  0  0  0  0  0  0  0  0
   -8.1784  -24.3770   32.5784 N   0  0  0  0  0  0  0  0  0  0  0  0
  -12.0761  -26.3505   28.4831 H   0  0  0  0  0  0  0  0  0  0  0  0
  -11.8114  -27.6792   29.6135 H   0  0  0  0  0  0  0  0  0  0  0  0
  -10.4377  -26.7662   29.0007 H   0  0  0  0  0  0  0  0  0  0  0  0
  -11.5209  -26.2356   31.4615 H   0  0  0  0  0  0  0  0  0  0  0  0
  -10.5941  -25.2062   30.4597 H   0  0  0  0  0  0  0  0  0  0  0  0
  -14.1517  -24.1465   34.4114 H   0  0  0  0  0  0  0  0  0  0  0  0
  -15.4573  -22.1465   33.7174 H   0  0  0  0  0  0  0  0  0  0  0  0
  -15.1091  -21.2342   31.4120 H   0  0  0  0  0  0  0  0  0  0  0  0
  -11.9912  -22.8375   27.1358 H   0  0  0  0  0  0  0  0  0  0  0  0
  -12.9052  -24.1483   27.8836 H   0  0  0  0  0  0  0  0  0  0  0  0
  -11.1281  -24.1580   27.9432 H   0  0  0  0  0  0  0  0  0  0  0  0
  -10.3438  -22.0040   29.1052 H   0  0  0  0  0  0  0  0  0  0  0  0
  -10.5755  -23.5008   30.2456 H   0  0  0  0  0  0  0  0  0  0  0  0
  -11.1543  -20.5359   30.5982 H   0  0  0  0  0  0  0  0  0  0  0  0
  -12.2031  -21.4237   31.8326 H   0  0  0  0  0  0  0  0  0  0  0  0
   -9.8218  -22.3031   32.1325 H   0  0  0  0  0  0  0  0  0  0  0  0
   -7.1273  -21.2630   32.7655 H   0  0  0  0  0  0  0  0  0  0  0  0
   -7.7904  -21.2281   34.1457 H   0  0  0  0  0  0  0  0  0  0  0  0
  -11.1928  -25.2900   33.3274 H   0  0  0  0  0  0  0  0  0  0  0  0
   -8.8673  -26.2549   32.1252 H   0  0  0  0  0  0  0  0  0  0  0  0
  1  2  1  0
  2  3  1  0
  3  4  1  0
  4  5  2  0
  5  6  1  0
  6  7  2  0
  7  8  1  0
  8  9  2  0
  9 10  1  0
 10 11  2  0
 10 12  1  0
 12 13  1  0
 12 14  1  0
 14 15  1  0
 15 16  1  0
 16 17  1  0
 17 18  2  0
 17 19  1  0
 19 20  1  0
 20 21  1  0
 21 22  2  0
 22 23  1  0
 23 24  2  0
  9  4  1  0
 24 20  1  0
  1 25  1  0
  1 26  1  0
  1 27  1  0
  2 28  1  0
  2 29  1  0
  6 30  1  0
  7 31  1  0
  8 32  1  0
 13 33  1  0
 13 34  1  0
 13 35  1  0
 14 36  1  0
 14 37  1  0
 15 38  1  0
 15 39  1  0
 16 40  1  0
 19 41  1  0
 19 42  1  0
 22 43  1  0
 23 44  1  0
M  END
>  <Energy>  (1271) 
337.11663517767676

>  <compound_id>  (1271) 
69264

>  <target_id>  (1271) 
1

>  <reference_id>  (1271) 
82

>  <inspiration_ids>  (1271) 
[82, 54]

>  <energy_score>  (1271) 
256.61270940429563

>  <distance_score>  (1271) 
2.7963236916878715

>  <path>  (1271) 
/opt/xchem-fragalysis-2/maxwin/BulkDock/SCRATCH/511022/C69264-P82/C69264-P82.minimised.mol

>  <scratch_subdir>  (1271) 
/opt/xchem-fragalysis-2/maxwin/BulkDock/SCRATCH/511022/C69264-P82

>  <fragmenstein_runtime>  (1271) 
11.456666231155396

>  <fragmenstein_outcome>  (1271) 
too moved

>  <fragmenstein_mode>  (1271) 
expansion

>  <fragmenstein_error>  (1271) 


$$$$
C69264-P54
     RDKit          3D

 44 45  0  0  0  0  0  0  0  0999 V2000
   -9.3819  -27.8914   26.8853 C   0  0  0  0  0  0  0  0  0  0  0  0
  -10.3239  -28.6333   27.8144 C   0  0  0  0  0  0  0  0  0  0  0  0
  -11.6121  -28.0027   27.7656 O   0  0  0  0  0  0  0  0  0  0  0  0
  -12.0465  -27.8296   29.0516 C   0  0  0  0  0  0  0  0  0  0  0  0
  -12.2170  -28.9683   29.7675 N   0  0  0  0  0  0  0  0  0  0  0  0
  -12.4087  -28.8400   31.0963 C   0  0  0  0  0  0  0  0  0  0  0  0
  -12.3098  -27.6373   31.7594 C   0  0  0  0  0  0  0  0  0  0  0  0
  -12.1464  -26.4989   30.9830 C   0  0  0  0  0  0  0  0  0  0  0  0
  -12.1479  -26.5689   29.5917 C   0  0  0  0  0  0  0  0  0  0  0  0
  -12.3870  -25.3152   28.8509 C   0  0  0  0  0  0  0  0  0  0  0  0
  -13.0578  -24.4344   29.3846 O   0  0  0  0  0  0  0  0  0  0  0  0
  -11.9492  -25.1426   27.5658 N   0  0  0  0  0  0  0  0  0  0  0  0
  -12.7673  -25.5890   26.4601 C   0  0  0  0  0  0  0  0  0  0  0  0
  -10.6638  -24.5090   27.3230 C   0  0  0  0  0  0  0  0  0  0  0  0
  -10.6705  -22.9956   27.5895 C   0  0  0  0  0  0  0  0  0  0  0  0
  -10.8294  -22.6571   28.9843 N   0  0  0  0  0  0  0  0  0  0  0  0
  -11.0074  -21.3873   29.6321 C   0  0  0  0  0  0  0  0  0  0  0  0
  -10.9910  -20.2728   29.1885 O   0  0  0  0  0  0  0  0  0  0  0  0
  -11.3167  -21.5767   31.1102 C   0  0  0  0  0  0  0  0  0  0  0  0
  -10.2959  -22.3203   31.8193 N   0  0  0  0  0  0  0  0  0  0  0  0
   -9.5199  -21.7415   32.7589 N   0  0  0  0  0  0  0  0  0  0  0  0
   -8.7296  -22.7501   33.1255 C   0  0  0  0  0  0  0  0  0  0  0  0
   -9.0925  -23.9090   32.4359 C   0  0  0  0  0  0  0  0  0  0  0  0
  -10.0930  -23.6483   31.5876 N   0  0  0  0  0  0  0  0  0  0  0  0
   -8.4339  -28.4247   26.7842 H   0  0  0  0  0  0  0  0  0  0  0  0
   -9.1599  -26.8943   27.2653 H   0  0  0  0  0  0  0  0  0  0  0  0
   -9.8271  -27.7384   25.8996 H   0  0  0  0  0  0  0  0  0  0  0  0
   -9.8806  -28.6550   28.8145 H   0  0  0  0  0  0  0  0  0  0  0  0
  -10.4510  -29.6778   27.5210 H   0  0  0  0  0  0  0  0  0  0  0  0
  -12.5949  -29.7685   31.6297 H   0  0  0  0  0  0  0  0  0  0  0  0
  -12.3679  -27.5917   32.8398 H   0  0  0  0  0  0  0  0  0  0  0  0
  -12.0017  -25.5340   31.4446 H   0  0  0  0  0  0  0  0  0  0  0  0
  -13.0965  -24.7105   25.9000 H   0  0  0  0  0  0  0  0  0  0  0  0
  -12.1824  -26.2521   25.8186 H   0  0  0  0  0  0  0  0  0  0  0  0
  -13.6521  -26.1202   26.8240 H   0  0  0  0  0  0  0  0  0  0  0  0
   -9.9310  -24.9721   27.9924 H   0  0  0  0  0  0  0  0  0  0  0  0
  -10.3709  -24.7102   26.2888 H   0  0  0  0  0  0  0  0  0  0  0  0
   -9.7056  -22.5872   27.2907 H   0  0  0  0  0  0  0  0  0  0  0  0
  -11.4550  -22.4849   27.0223 H   0  0  0  0  0  0  0  0  0  0  0  0
  -10.8249  -23.3938   29.6920 H   0  0  0  0  0  0  0  0  0  0  0  0
  -11.4348  -20.6026   31.5958 H   0  0  0  0  0  0  0  0  0  0  0  0
  -12.2494  -22.1237   31.1861 H   0  0  0  0  0  0  0  0  0  0  0  0
   -7.9488  -22.5932   33.8564 H   0  0  0  0  0  0  0  0  0  0  0  0
   -8.6721  -24.9006   32.5034 H   0  0  0  0  0  0  0  0  0  0  0  0
  1  2  1  0
  2  3  1  0
  3  4  1  0
  4  5  2  0
  5  6  1  0
  6  7  2  0
  7  8  1  0
  8  9  2  0
  9 10  1  0
 10 11  2  0
 10 12  1  0
 12 13  1  0
 12 14  1  0
 14 15  1  0
 15 16  1  0
 16 17  1  0
 17 18  2  0
 17 19  1  0
 19 20  1  0
 20 21  1  0
 21 22  2  0
 22 23  1  0
 23 24  2  0
  9  4  1  0
 24 20  1  0
  1 25  1  0
  1 26  1  0
  1 27  1  0
  2 28  1  0
  2 29  1  0
  6 30  1  0
  7 31  1  0
  8 32  1  0
 13 33  1  0
 13 34  1  0
 13 35  1  0
 14 36  1  0
 14 37  1  0
 15 38  1  0
 15 39  1  0
 16 40  1  0
 19 41  1  0
 19 42  1  0
 22 43  1  0
 23 44  1  0
M  END
>  <Energy>  (1272) 
72.244114629289967

>  <compound_id>  (1272) 
69264

>  <target_id>  (1272) 
1

>  <reference_id>  (1272) 
54

>  <inspiration_ids>  (1272) 
[82, 54]

>  <energy_score>  (1272) 
-8.259811144093362

>  <distance_score>  (1272) 
3.6043854551400987

>  <path>  (1272) 
/opt/xchem-fragalysis-2/maxwin/BulkDock/SCRATCH/511022/C69264-P54/C69264-P54.minimised.mol

>  <scratch_subdir>  (1272) 
/opt/xchem-fragalysis-2/maxwin/BulkDock/SCRATCH/511022/C69264-P54

>  <fragmenstein_runtime>  (1272) 
10.928051948547363

>  <fragmenstein_outcome>  (1272) 
too moved

>  <fragmenstein_mode>  (1272) 
expansion

>  <fragmenstein_error>  (1272) 


$$$$
C69266-P82
     RDKit          3D

 38 39  0  0  0  0  0  0  0  0999 V2000
  -11.2837  -25.1885   25.9858 C   0  0  0  0  0  0  0  0  0  0  0  0
  -12.6568  -25.1551   26.5805 N   0  0  0  0  0  0  0  0  0  0  0  0
  -12.4147  -23.6605   26.5066 C   0  0  0  0  0  0  0  0  0  0  0  0
  -11.6804  -22.9535   27.6600 C   0  0  0  0  0  0  0  0  0  0  0  0
  -12.1669  -23.2388   28.9790 N   0  0  0  0  0  0  0  0  0  0  0  0
  -12.0271  -22.5152   30.2101 C   0  0  0  0  0  0  0  0  0  0  0  0
  -11.5364  -21.4479   30.4363 O   0  0  0  0  0  0  0  0  0  0  0  0
  -12.5168  -23.3415   31.4021 C   0  0  0  0  0  0  0  0  0  0  0  0
  -11.5218  -24.3518   31.6854 N   0  0  0  0  0  0  0  0  0  0  0  0
  -11.3106  -25.4787   30.9599 C   0  0  0  0  0  0  0  0  0  0  0  0
  -10.1686  -26.0181   31.2839 N   0  0  0  0  0  0  0  0  0  0  0  0
   -9.7449  -25.2207   32.3026 C   0  0  0  0  0  0  0  0  0  0  0  0
  -10.5319  -24.1745   32.5772 N   0  0  0  0  0  0  0  0  0  0  0  0
  -13.5333  -25.9909   25.8353 C   0  0  0  0  0  0  0  0  0  0  0  0
  -14.2393  -25.7413   24.8980 O   0  0  0  0  0  0  0  0  0  0  0  0
  -13.6356  -27.3754   26.3831 C   0  0  0  0  0  0  0  0  0  0  0  0
  -14.5573  -28.2338   25.8016 C   0  0  0  0  0  0  0  0  0  0  0  0
  -14.8105  -29.4918   26.2352 N   0  0  0  0  0  0  0  0  0  0  0  0
  -14.0993  -29.9413   27.2809 C   0  0  0  0  0  0  0  0  0  0  0  0
  -13.1568  -29.1750   27.9244 C   0  0  0  0  0  0  0  0  0  0  0  0
  -12.9322  -27.8777   27.4759 C   0  0  0  0  0  0  0  0  0  0  0  0
  -12.0723  -27.1363   28.2337 O   0  0  0  0  0  0  0  0  0  0  0  0
  -11.0827  -26.2524   25.7845 H   0  0  0  0  0  0  0  0  0  0  0  0
  -10.5028  -24.9237   26.7042 H   0  0  0  0  0  0  0  0  0  0  0  0
  -11.1631  -24.7417   24.9905 H   0  0  0  0  0  0  0  0  0  0  0  0
  -13.4462  -23.3204   26.5966 H   0  0  0  0  0  0  0  0  0  0  0  0
  -12.1821  -23.2480   25.5105 H   0  0  0  0  0  0  0  0  0  0  0  0
  -10.6206  -23.2059   27.6926 H   0  0  0  0  0  0  0  0  0  0  0  0
  -11.7319  -21.8732   27.5233 H   0  0  0  0  0  0  0  0  0  0  0  0
  -12.7126  -24.0791   29.1489 H   0  0  0  0  0  0  0  0  0  0  0  0
  -13.4704  -23.8260   31.2005 H   0  0  0  0  0  0  0  0  0  0  0  0
  -12.6306  -22.7030   32.2840 H   0  0  0  0  0  0  0  0  0  0  0  0
  -12.0022  -25.8428   30.2242 H   0  0  0  0  0  0  0  0  0  0  0  0
   -8.8278  -25.4039   32.8445 H   0  0  0  0  0  0  0  0  0  0  0  0
  -15.1630  -27.9322   24.9485 H   0  0  0  0  0  0  0  0  0  0  0  0
  -14.3234  -30.9556   27.5993 H   0  0  0  0  0  0  0  0  0  0  0  0
  -12.6611  -29.5770   28.7921 H   0  0  0  0  0  0  0  0  0  0  0  0
  -12.1523  -26.2060   27.9464 H   0  0  0  0  0  0  0  0  0  0  0  0
  1  2  1  0
  2  3  1  0
  3  4  1  0
  4  5  1  0
  5  6  1  0
  6  7  2  0
  6  8  1  0
  8  9  1  0
  9 10  1  0
 10 11  2  0
 11 12  1  0
 12 13  2  0
  2 14  1  0
 14 15  2  0
 14 16  1  0
 16 17  2  0
 17 18  1  0
 18 19  2  0
 19 20  1  0
 20 21  2  0
 21 22  1  0
 13  9  1  0
 21 16  1  0
  1 23  1  0
  1 24  1  0
  1 25  1  0
  3 26  1  0
  3 27  1  0
  4 28  1  0
  4 29  1  0
  5 30  1  0
  8 31  1  0
  8 32  1  0
 10 33  1  0
 12 34  1  0
 17 35  1  0
 19 36  1  0
 20 37  1  0
 22 38  1  0
M  END
>  <Energy>  (1273) 
117.34007565563974

>  <compound_id>  (1273) 
69266

>  <target_id>  (1273) 
1

>  <reference_id>  (1273) 
82

>  <inspiration_ids>  (1273) 
[82, 54]

>  <energy_score>  (1273) 
34.06635101321052

>  <distance_score>  (1273) 
4.786388444448365

>  <path>  (1273) 
/opt/xchem-fragalysis-2/maxwin/BulkDock/SCRATCH/511022/C69266-P82/C69266-P82.minimised.mol

>  <scratch_subdir>  (1273) 
/opt/xchem-fragalysis-2/maxwin/BulkDock/SCRATCH/511022/C69266-P82

>  <fragmenstein_runtime>  (1273) 
10.725953340530396

>  <fragmenstein_outcome>  (1273) 
too moved

>  <fragmenstein_mode>  (1273) 
expansion

>  <fragmenstein_error>  (1273) 


$$$$
C69266-P54
     RDKit          3D

 38 39  0  0  0  0  0  0  0  0999 V2000
  -10.4840  -24.9280   27.4775 C   0  0  0  0  0  0  0  0  0  0  0  0
  -11.8388  -24.6194   28.0469 N   0  0  0  0  0  0  0  0  0  0  0  0
  -11.7253  -23.4386   27.1050 C   0  0  0  0  0  0  0  0  0  0  0  0
  -11.1116  -22.1752   27.7301 C   0  0  0  0  0  0  0  0  0  0  0  0
  -11.3378  -22.0653   29.1470 N   0  0  0  0  0  0  0  0  0  0  0  0
  -11.2427  -20.9378   30.0306 C   0  0  0  0  0  0  0  0  0  0  0  0
  -11.0285  -19.7855   29.8024 O   0  0  0  0  0  0  0  0  0  0  0  0
  -11.3980  -21.3558   31.4797 C   0  0  0  0  0  0  0  0  0  0  0  0
  -10.2618  -22.0564   32.0470 N   0  0  0  0  0  0  0  0  0  0  0  0
   -9.3961  -22.9116   31.4361 C   0  0  0  0  0  0  0  0  0  0  0  0
   -8.7586  -23.6193   32.3369 N   0  0  0  0  0  0  0  0  0  0  0  0
   -9.1455  -23.0382   33.5030 C   0  0  0  0  0  0  0  0  0  0  0  0
  -10.1062  -22.1245   33.3866 N   0  0  0  0  0  0  0  0  0  0  0  0
  -12.6601  -25.7671   27.9942 C   0  0  0  0  0  0  0  0  0  0  0  0
  -13.4172  -26.1475   27.1412 O   0  0  0  0  0  0  0  0  0  0  0  0
  -12.6090  -26.5736   29.2661 C   0  0  0  0  0  0  0  0  0  0  0  0
  -13.2624  -27.8006   29.2565 C   0  0  0  0  0  0  0  0  0  0  0  0
  -13.3111  -28.6622   30.3039 N   0  0  0  0  0  0  0  0  0  0  0  0
  -12.6884  -28.2903   31.4346 C   0  0  0  0  0  0  0  0  0  0  0  0
  -12.0182  -27.0911   31.5647 C   0  0  0  0  0  0  0  0  0  0  0  0
  -11.9756  -26.2272   30.4674 C   0  0  0  0  0  0  0  0  0  0  0  0
  -11.3317  -25.0309   30.6354 O   0  0  0  0  0  0  0  0  0  0  0  0
   -9.6929  -24.2157   27.7344 H   0  0  0  0  0  0  0  0  0  0  0  0
  -10.1592  -25.8435   27.9901 H   0  0  0  0  0  0  0  0  0  0  0  0
  -10.4936  -25.2534   26.4251 H   0  0  0  0  0  0  0  0  0  0  0  0
  -11.4353  -23.6066   26.0555 H   0  0  0  0  0  0  0  0  0  0  0  0
  -12.7892  -23.1932   26.9687 H   0  0  0  0  0  0  0  0  0  0  0  0
  -10.0257  -22.1706   27.6069 H   0  0  0  0  0  0  0  0  0  0  0  0
  -11.4800  -21.2693   27.2462 H   0  0  0  0  0  0  0  0  0  0  0  0
  -11.6163  -22.8885   29.6851 H   0  0  0  0  0  0  0  0  0  0  0  0
  -12.2351  -22.0345   31.5347 H   0  0  0  0  0  0  0  0  0  0  0  0
  -11.6048  -20.4767   32.0988 H   0  0  0  0  0  0  0  0  0  0  0  0
   -9.2950  -23.0212   30.3665 H   0  0  0  0  0  0  0  0  0  0  0  0
   -8.7407  -23.3075   34.4658 H   0  0  0  0  0  0  0  0  0  0  0  0
  -13.7932  -28.1530   28.3744 H   0  0  0  0  0  0  0  0  0  0  0  0
  -12.7435  -29.0053   32.2516 H   0  0  0  0  0  0  0  0  0  0  0  0
  -11.5388  -26.8569   32.5071 H   0  0  0  0  0  0  0  0  0  0  0  0
  -10.6811  -25.1093   31.3627 H   0  0  0  0  0  0  0  0  0  0  0  0
  1  2  1  0
  2  3  1  0
  3  4  1  0
  4  5  1  0
  5  6  1  0
  6  7  2  0
  6  8  1  0
  8  9  1  0
  9 10  1  0
 10 11  2  0
 11 12  1  0
 12 13  2  0
  2 14  1  0
 14 15  2  0
 14 16  1  0
 16 17  2  0
 17 18  1  0
 18 19  2  0
 19 20  1  0
 20 21  2  0
 21 22  1  0
 13  9  1  0
 21 16  1  0
  1 23  1  0
  1 24  1  0
  1 25  1  0
  3 26  1  0
  3 27  1  0
  4 28  1  0
  4 29  1  0
  5 30  1  0
  8 31  1  0
  8 32  1  0
 10 33  1  0
 12 34  1  0
 17 35  1  0
 19 36  1  0
 20 37  1  0
 22 38  1  0
M  END
>  <Energy>  (1274) 
109.7840898336085

>  <compound_id>  (1274) 
69266

>  <target_id>  (1274) 
1

>  <reference_id>  (1274) 
54

>  <inspiration_ids>  (1274) 
[82, 54]

>  <energy_score>  (1274) 
26.510365191176106

>  <distance_score>  (1274) 
2.7394518649387414

>  <path>  (1274) 
/opt/xchem-fragalysis-2/maxwin/BulkDock/SCRATCH/511022/C69266-P54/C69266-P54.minimised.mol

>  <scratch_subdir>  (1274) 
/opt/xchem-fragalysis-2/maxwin/BulkDock/SCRATCH/511022/C69266-P54

>  <fragmenstein_runtime>  (1274) 
8.16951608657837

>  <fragmenstein_outcome>  (1274) 
too moved

>  <fragmenstein_mode>  (1274) 
expansion

>  <fragmenstein_error>  (1274) 


$$$$
C69267-P82
     RDKit          3D

 38 39  0  0  0  0  0  0  0  0999 V2000
  -14.5797  -21.7625   31.7430 C   0  0  0  0  0  0  0  0  0  0  0  0
  -13.6660  -22.6389   30.9676 N   0  0  0  0  0  0  0  0  0  0  0  0
  -13.1496  -22.9435   32.3498 C   0  0  0  0  0  0  0  0  0  0  0  0
  -11.7121  -22.4474   32.6127 C   0  0  0  0  0  0  0  0  0  0  0  0
  -10.8376  -23.4827   32.1415 N   0  0  0  0  0  0  0  0  0  0  0  0
   -9.4989  -23.7941   32.4783 C   0  0  0  0  0  0  0  0  0  0  0  0
   -8.7272  -23.2318   33.1759 O   0  0  0  0  0  0  0  0  0  0  0  0
   -8.9878  -25.1012   31.9580 C   0  0  0  0  0  0  0  0  0  0  0  0
   -9.8027  -26.0392   32.6406 N   0  0  0  0  0  0  0  0  0  0  0  0
  -10.8558  -26.4423   31.9222 C   0  0  0  0  0  0  0  0  0  0  0  0
  -11.8593  -25.7868   32.4551 N   0  0  0  0  0  0  0  0  0  0  0  0
  -11.4270  -25.4574   33.7161 C   0  0  0  0  0  0  0  0  0  0  0  0
  -10.1694  -25.8078   33.9390 N   0  0  0  0  0  0  0  0  0  0  0  0
  -12.5721  -22.3151   30.0809 C   0  0  0  0  0  0  0  0  0  0  0  0
  -12.0672  -21.2529   29.8170 O   0  0  0  0  0  0  0  0  0  0  0  0
  -12.0033  -23.4289   29.2482 C   0  0  0  0  0  0  0  0  0  0  0  0
  -11.3246  -23.0656   28.0905 C   0  0  0  0  0  0  0  0  0  0  0  0
  -10.8521  -23.9304   27.1554 N   0  0  0  0  0  0  0  0  0  0  0  0
  -11.1115  -25.2260   27.3529 C   0  0  0  0  0  0  0  0  0  0  0  0
  -11.7874  -25.6955   28.4554 C   0  0  0  0  0  0  0  0  0  0  0  0
  -12.0406  -27.0243   28.6057 O   0  0  0  0  0  0  0  0  0  0  0  0
  -12.2330  -24.7871   29.4108 C   0  0  0  0  0  0  0  0  0  0  0  0
  -15.3785  -22.3489   32.2266 H   0  0  0  0  0  0  0  0  0  0  0  0
  -14.1331  -21.0178   32.4100 H   0  0  0  0  0  0  0  0  0  0  0  0
  -15.1270  -21.1797   30.9951 H   0  0  0  0  0  0  0  0  0  0  0  0
  -13.1992  -24.0307   32.3390 H   0  0  0  0  0  0  0  0  0  0  0  0
  -13.7460  -22.7719   33.2711 H   0  0  0  0  0  0  0  0  0  0  0  0
  -11.4468  -21.4730   32.1998 H   0  0  0  0  0  0  0  0  0  0  0  0
  -11.6033  -22.3899   33.6950 H   0  0  0  0  0  0  0  0  0  0  0  0
  -11.2205  -24.2347   31.5824 H   0  0  0  0  0  0  0  0  0  0  0  0
   -7.9708  -25.3157   32.2758 H   0  0  0  0  0  0  0  0  0  0  0  0
   -9.1073  -25.1737   30.8738 H   0  0  0  0  0  0  0  0  0  0  0  0
  -10.7824  -26.9476   30.9695 H   0  0  0  0  0  0  0  0  0  0  0  0
  -12.0232  -24.9003   34.4066 H   0  0  0  0  0  0  0  0  0  0  0  0
  -11.1585  -22.0200   27.8453 H   0  0  0  0  0  0  0  0  0  0  0  0
  -10.7648  -25.8917   26.5744 H   0  0  0  0  0  0  0  0  0  0  0  0
  -11.8065  -27.4851   27.7830 H   0  0  0  0  0  0  0  0  0  0  0  0
  -12.8189  -25.1225   30.2525 H   0  0  0  0  0  0  0  0  0  0  0  0
  1  2  1  0
  2  3  1  0
  3  4  1  0
  4  5  1  0
  5  6  1  0
  6  7  2  0
  6  8  1  0
  8  9  1  0
  9 10  1  0
 10 11  2  0
 11 12  1  0
 12 13  2  0
  2 14  1  0
 14 15  2  0
 14 16  1  0
 16 17  2  0
 17 18  1  0
 18 19  2  0
 19 20  1  0
 20 21  1  0
 20 22  2  0
 13  9  1  0
 22 16  1  0
  1 23  1  0
  1 24  1  0
  1 25  1  0
  3 26  1  0
  3 27  1  0
  4 28  1  0
  4 29  1  0
  5 30  1  0
  8 31  1  0
  8 32  1  0
 10 33  1  0
 12 34  1  0
 17 35  1  0
 19 36  1  0
 21 37  1  0
 22 38  1  0
M  END
>  <Energy>  (1275) 
193.06298980586064

>  <compound_id>  (1275) 
69267

>  <target_id>  (1275) 
1

>  <reference_id>  (1275) 
82

>  <inspiration_ids>  (1275) 
[82, 54]

>  <energy_score>  (1275) 
119.25740917734606

>  <distance_score>  (1275) 
3.095130311725902

>  <path>  (1275) 
/opt/xchem-fragalysis-2/maxwin/BulkDock/SCRATCH/511022/C69267-P82/C69267-P82.minimised.mol

>  <scratch_subdir>  (1275) 
/opt/xchem-fragalysis-2/maxwin/BulkDock/SCRATCH/511022/C69267-P82

>  <fragmenstein_runtime>  (1275) 
6.239450216293335

>  <fragmenstein_outcome>  (1275) 
too moved

>  <fragmenstein_mode>  (1275) 
expansion

>  <fragmenstein_error>  (1275) 


$$$$
C69267-P54
     RDKit          3D

 38 39  0  0  0  0  0  0  0  0999 V2000
  -10.8108  -21.7534   32.0865 C   0  0  0  0  0  0  0  0  0  0  0  0
  -11.0295  -22.3385   30.7312 N   0  0  0  0  0  0  0  0  0  0  0  0
   -9.6867  -22.9964   31.0371 C   0  0  0  0  0  0  0  0  0  0  0  0
   -9.7829  -24.4232   31.6016 C   0  0  0  0  0  0  0  0  0  0  0  0
  -10.8586  -25.2327   31.0589 N   0  0  0  0  0  0  0  0  0  0  0  0
  -11.0588  -25.7742   29.7497 C   0  0  0  0  0  0  0  0  0  0  0  0
  -10.4288  -25.6336   28.7405 O   0  0  0  0  0  0  0  0  0  0  0  0
  -12.3332  -26.6113   29.6639 C   0  0  0  0  0  0  0  0  0  0  0  0
  -12.5670  -27.4605   30.8046 N   0  0  0  0  0  0  0  0  0  0  0  0
  -12.6287  -28.8109   30.8453 C   0  0  0  0  0  0  0  0  0  0  0  0
  -13.0340  -29.1861   32.0351 N   0  0  0  0  0  0  0  0  0  0  0  0
  -13.2026  -28.0135   32.6996 C   0  0  0  0  0  0  0  0  0  0  0  0
  -12.9315  -26.9159   31.9860 N   0  0  0  0  0  0  0  0  0  0  0  0
  -10.9954  -21.7396   29.4494 C   0  0  0  0  0  0  0  0  0  0  0  0
  -10.6946  -20.6300   29.1148 O   0  0  0  0  0  0  0  0  0  0  0  0
  -11.4822  -22.6745   28.4248 C   0  0  0  0  0  0  0  0  0  0  0  0
  -10.7803  -22.9203   27.2660 C   0  0  0  0  0  0  0  0  0  0  0  0
  -11.2092  -23.7683   26.2976 N   0  0  0  0  0  0  0  0  0  0  0  0
  -12.4037  -24.3636   26.5097 C   0  0  0  0  0  0  0  0  0  0  0  0
  -13.1700  -24.1647   27.6322 C   0  0  0  0  0  0  0  0  0  0  0  0
  -14.3753  -24.7614   27.8061 O   0  0  0  0  0  0  0  0  0  0  0  0
  -12.6777  -23.3431   28.6224 C   0  0  0  0  0  0  0  0  0  0  0  0
  -10.7980  -22.4642   32.9208 H   0  0  0  0  0  0  0  0  0  0  0  0
  -11.7251  -21.1661   32.2516 H   0  0  0  0  0  0  0  0  0  0  0  0
  -10.0365  -20.9807   32.1445 H   0  0  0  0  0  0  0  0  0  0  0  0
   -8.8835  -22.4102   31.5166 H   0  0  0  0  0  0  0  0  0  0  0  0
   -9.2363  -23.1551   30.0422 H   0  0  0  0  0  0  0  0  0  0  0  0
   -9.8861  -24.4146   32.6890 H   0  0  0  0  0  0  0  0  0  0  0  0
   -8.8409  -24.9195   31.3833 H   0  0  0  0  0  0  0  0  0  0  0  0
  -11.6388  -25.5010   31.6501 H   0  0  0  0  0  0  0  0  0  0  0  0
  -12.2923  -27.2455   28.7720 H   0  0  0  0  0  0  0  0  0  0  0  0
  -13.2027  -25.9596   29.6003 H   0  0  0  0  0  0  0  0  0  0  0  0
  -12.3938  -29.4613   30.0141 H   0  0  0  0  0  0  0  0  0  0  0  0
  -13.5409  -27.9605   33.7263 H   0  0  0  0  0  0  0  0  0  0  0  0
   -9.8141  -22.4679   27.1008 H   0  0  0  0  0  0  0  0  0  0  0  0
  -12.7410  -25.0547   25.7494 H   0  0  0  0  0  0  0  0  0  0  0  0
  -14.8538  -24.7314   26.9570 H   0  0  0  0  0  0  0  0  0  0  0  0
  -13.2353  -23.1534   29.5216 H   0  0  0  0  0  0  0  0  0  0  0  0
  1  2  1  0
  2  3  1  0
  3  4  1  0
  4  5  1  0
  5  6  1  0
  6  7  2  0
  6  8  1  0
  8  9  1  0
  9 10  1  0
 10 11  2  0
 11 12  1  0
 12 13  2  0
  2 14  1  0
 14 15  2  0
 14 16  1  0
 16 17  2  0
 17 18  1  0
 18 19  2  0
 19 20  1  0
 20 21  1  0
 20 22  2  0
 13  9  1  0
 22 16  1  0
  1 23  1  0
  1 24  1  0
  1 25  1  0
  3 26  1  0
  3 27  1  0
  4 28  1  0
  4 29  1  0
  5 30  1  0
  8 31  1  0
  8 32  1  0
 10 33  1  0
 12 34  1  0
 17 35  1  0
 19 36  1  0
 21 37  1  0
 22 38  1  0
M  END
>  <Energy>  (1276) 
119.67987491068301

>  <compound_id>  (1276) 
69267

>  <target_id>  (1276) 
1

>  <reference_id>  (1276) 
54

>  <inspiration_ids>  (1276) 
[82, 54]

>  <energy_score>  (1276) 
45.87429428216831

>  <distance_score>  (1276) 
3.0207729265905745

>  <path>  (1276) 
/opt/xchem-fragalysis-2/maxwin/BulkDock/SCRATCH/511022/C69267-P54/C69267-P54.minimised.mol

>  <scratch_subdir>  (1276) 
/opt/xchem-fragalysis-2/maxwin/BulkDock/SCRATCH/511022/C69267-P54

>  <fragmenstein_runtime>  (1276) 
8.406152248382568

>  <fragmenstein_outcome>  (1276) 
too moved

>  <fragmenstein_mode>  (1276) 
expansion

>  <fragmenstein_error>  (1276) 


$$$$
C69268-P82
     RDKit          3D

 41 42  0  0  0  0  0  0  0  0999 V2000
  -13.9895  -26.5065   26.8488 C   0  0  0  0  0  0  0  0  0  0  0  0
  -13.1942  -26.0778   25.6853 N   0  0  0  0  0  0  0  0  0  0  0  0
  -13.2274  -27.5287   25.4022 C   0  0  0  0  0  0  0  0  0  0  0  0
  -11.9849  -28.1559   26.1393 C   0  0  0  0  0  0  0  0  0  0  0  0
  -11.4027  -27.2954   27.1893 N   0  0  0  0  0  0  0  0  0  0  0  0
  -11.5663  -27.3108   28.6357 C   0  0  0  0  0  0  0  0  0  0  0  0
  -12.2779  -27.9772   29.3327 O   0  0  0  0  0  0  0  0  0  0  0  0
  -10.5477  -26.3516   29.3076 C   0  0  0  0  0  0  0  0  0  0  0  0
  -11.0298  -25.5644   30.4908 C   0  0  0  0  0  0  0  0  0  0  0  0
  -10.3261  -25.5685   31.6915 C   0  0  0  0  0  0  0  0  0  0  0  0
  -10.6911  -24.8425   32.7767 N   0  0  0  0  0  0  0  0  0  0  0  0
  -11.8265  -24.1304   32.6342 C   0  0  0  0  0  0  0  0  0  0  0  0
  -12.5076  -24.0817   31.4351 C   0  0  0  0  0  0  0  0  0  0  0  0
  -12.0966  -24.7575   30.3340 N   0  0  0  0  0  0  0  0  0  0  0  0
  -13.8273  -24.9891   25.0366 C   0  0  0  0  0  0  0  0  0  0  0  0
  -14.6296  -24.9715   24.1403 O   0  0  0  0  0  0  0  0  0  0  0  0
  -13.2652  -23.6658   25.5515 C   0  0  0  0  0  0  0  0  0  0  0  0
  -12.8705  -23.5550   26.8873 C   0  0  0  0  0  0  0  0  0  0  0  0
  -11.6110  -23.7944   27.3499 C   0  0  0  0  0  0  0  0  0  0  0  0
  -10.7570  -24.1713   26.3858 C   0  0  0  0  0  0  0  0  0  0  0  0
  -10.9939  -24.0147   25.0681 N   0  0  0  0  0  0  0  0  0  0  0  0
  -12.1781  -23.4697   24.7369 C   0  0  0  0  0  0  0  0  0  0  0  0
  -12.2177  -22.6246   23.6307 N   0  0  0  0  0  0  0  0  0  0  0  0
  -13.8433  -25.7274   27.5947 H   0  0  0  0  0  0  0  0  0  0  0  0
  -15.0488  -26.5337   26.5522 H   0  0  0  0  0  0  0  0  0  0  0  0
  -13.8035  -27.4420   27.3935 H   0  0  0  0  0  0  0  0  0  0  0  0
  -12.9915  -27.6023   24.3359 H   0  0  0  0  0  0  0  0  0  0  0  0
  -14.1734  -28.1000   25.4443 H   0  0  0  0  0  0  0  0  0  0  0  0
  -11.1757  -28.2941   25.4191 H   0  0  0  0  0  0  0  0  0  0  0  0
  -12.2532  -29.1205   26.5805 H   0  0  0  0  0  0  0  0  0  0  0  0
  -10.7746  -26.5465   26.9360 H   0  0  0  0  0  0  0  0  0  0  0  0
  -10.0832  -25.6706   28.5970 H   0  0  0  0  0  0  0  0  0  0  0  0
   -9.7344  -26.9860   29.6616 H   0  0  0  0  0  0  0  0  0  0  0  0
   -9.4251  -26.1574   31.8170 H   0  0  0  0  0  0  0  0  0  0  0  0
  -12.1789  -23.6062   33.5145 H   0  0  0  0  0  0  0  0  0  0  0  0
  -13.4283  -23.5200   31.3256 H   0  0  0  0  0  0  0  0  0  0  0  0
  -13.4216  -22.9554   27.5698 H   0  0  0  0  0  0  0  0  0  0  0  0
  -11.3218  -23.6246   28.3729 H   0  0  0  0  0  0  0  0  0  0  0  0
   -9.7655  -24.4343   26.6721 H   0  0  0  0  0  0  0  0  0  0  0  0
  -13.0396  -22.7442   23.0569 H   0  0  0  0  0  0  0  0  0  0  0  0
  -11.3343  -22.6437   23.1231 H   0  0  0  0  0  0  0  0  0  0  0  0
  1  2  1  0
  2  3  1  0
  3  4  1  0
  4  5  1  0
  5  6  1  0
  6  7  2  0
  6  8  1  0
  8  9  1  0
  9 10  2  0
 10 11  1  0
 11 12  2  0
 12 13  1  0
 13 14  2  0
  2 15  1  0
 15 16  2  0
 15 17  1  0
 17 18  2  0
 18 19  1  0
 19 20  2  0
 20 21  1  0
 21 22  2  0
 22 23  1  0
 14  9  1  0
 22 17  1  0
  1 24  1  0
  1 25  1  0
  1 26  1  0
  3 27  1  0
  3 28  1  0
  4 29  1  0
  4 30  1  0
  5 31  1  0
  8 32  1  0
  8 33  1  0
 10 34  1  0
 12 35  1  0
 13 36  1  0
 18 37  1  0
 19 38  1  0
 20 39  1  0
 23 40  1  0
 23 41  1  0
M  END
>  <Energy>  (1277) 
219.76815076213995

>  <compound_id>  (1277) 
69268

>  <target_id>  (1277) 
1

>  <reference_id>  (1277) 
82

>  <inspiration_ids>  (1277) 
[82, 54]

>  <energy_score>  (1277) 
104.74472734766954

>  <distance_score>  (1277) 
2.9446799208845054

>  <path>  (1277) 
/opt/xchem-fragalysis-2/maxwin/BulkDock/SCRATCH/511022/C69268-P82/C69268-P82.minimised.mol

>  <scratch_subdir>  (1277) 
/opt/xchem-fragalysis-2/maxwin/BulkDock/SCRATCH/511022/C69268-P82

>  <fragmenstein_runtime>  (1277) 
12.824618816375732

>  <fragmenstein_outcome>  (1277) 
too moved

>  <fragmenstein_mode>  (1277) 
expansion

>  <fragmenstein_error>  (1277) 


$$$$
C69268-P54
     RDKit          3D

 41 42  0  0  0  0  0  0  0  0999 V2000
  -15.2868  -27.9873   27.1275 C   0  0  0  0  0  0  0  0  0  0  0  0
  -16.0683  -26.8968   27.7887 N   0  0  0  0  0  0  0  0  0  0  0  0
  -16.6786  -28.0905   28.5419 C   0  0  0  0  0  0  0  0  0  0  0  0
  -16.3901  -28.1012   30.0672 C   0  0  0  0  0  0  0  0  0  0  0  0
  -15.0101  -28.3367   30.4288 N   0  0  0  0  0  0  0  0  0  0  0  0
  -14.2729  -27.9855   31.6128 C   0  0  0  0  0  0  0  0  0  0  0  0
  -14.6327  -27.4780   32.6358 O   0  0  0  0  0  0  0  0  0  0  0  0
  -12.7886  -28.3026   31.4244 C   0  0  0  0  0  0  0  0  0  0  0  0
  -12.0563  -27.1748   30.7498 C   0  0  0  0  0  0  0  0  0  0  0  0
  -11.8122  -27.1817   29.3835 C   0  0  0  0  0  0  0  0  0  0  0  0
  -11.1674  -26.1795   28.7367 N   0  0  0  0  0  0  0  0  0  0  0  0
  -10.7897  -25.1352   29.5118 C   0  0  0  0  0  0  0  0  0  0  0  0
  -11.0115  -25.1188   30.8693 C   0  0  0  0  0  0  0  0  0  0  0  0
  -11.6317  -26.1401   31.5122 N   0  0  0  0  0  0  0  0  0  0  0  0
  -15.1869  -25.8624   28.2362 C   0  0  0  0  0  0  0  0  0  0  0  0
  -14.6278  -25.7140   29.2904 O   0  0  0  0  0  0  0  0  0  0  0  0
  -14.8432  -24.8714   27.1772 C   0  0  0  0  0  0  0  0  0  0  0  0
  -13.5315  -24.3795   27.1633 C   0  0  0  0  0  0  0  0  0  0  0  0
  -13.1313  -23.4608   26.2101 C   0  0  0  0  0  0  0  0  0  0  0  0
  -14.0798  -23.0506   25.2992 C   0  0  0  0  0  0  0  0  0  0  0  0
  -15.3558  -23.5128   25.2706 N   0  0  0  0  0  0  0  0  0  0  0  0
  -15.7305  -24.4069   26.2119 C   0  0  0  0  0  0  0  0  0  0  0  0
  -17.0755  -24.7431   26.1841 N   0  0  0  0  0  0  0  0  0  0  0  0
  -14.6089  -28.5539   27.7790 H   0  0  0  0  0  0  0  0  0  0  0  0
  -15.8997  -28.6019   26.4493 H   0  0  0  0  0  0  0  0  0  0  0  0
  -14.5934  -27.4886   26.4332 H   0  0  0  0  0  0  0  0  0  0  0  0
  -17.7521  -27.8555   28.4658 H   0  0  0  0  0  0  0  0  0  0  0  0
  -16.6507  -29.1248   28.1508 H   0  0  0  0  0  0  0  0  0  0  0  0
  -16.9798  -28.8930   30.5419 H   0  0  0  0  0  0  0  0  0  0  0  0
  -16.6979  -27.1548   30.5257 H   0  0  0  0  0  0  0  0  0  0  0  0
  -14.3988  -28.8240   29.7940 H   0  0  0  0  0  0  0  0  0  0  0  0
  -12.6593  -29.2425   30.8755 H   0  0  0  0  0  0  0  0  0  0  0  0
  -12.3538  -28.4735   32.4170 H   0  0  0  0  0  0  0  0  0  0  0  0
  -12.1247  -28.0046   28.7528 H   0  0  0  0  0  0  0  0  0  0  0  0
  -10.2874  -24.3173   29.0083 H   0  0  0  0  0  0  0  0  0  0  0  0
  -10.6935  -24.2809   31.4794 H   0  0  0  0  0  0  0  0  0  0  0  0
  -12.8352  -24.6863   27.9271 H   0  0  0  0  0  0  0  0  0  0  0  0
  -12.1344  -23.0350   26.2045 H   0  0  0  0  0  0  0  0  0  0  0  0
  -13.8401  -22.2935   24.5564 H   0  0  0  0  0  0  0  0  0  0  0  0
  -17.5387  -24.3452   25.3779 H   0  0  0  0  0  0  0  0  0  0  0  0
  -17.2574  -25.7201   26.3792 H   0  0  0  0  0  0  0  0  0  0  0  0
  1  2  1  0
  2  3  1  0
  3  4  1  0
  4  5  1  0
  5  6  1  0
  6  7  2  0
  6  8  1  0
  8  9  1  0
  9 10  2  0
 10 11  1  0
 11 12  2  0
 12 13  1  0
 13 14  2  0
  2 15  1  0
 15 16  2  0
 15 17  1  0
 17 18  2  0
 18 19  1  0
 19 20  2  0
 20 21  1  0
 21 22  2  0
 22 23  1  0
 14  9  1  0
 22 17  1  0
  1 24  1  0
  1 25  1  0
  1 26  1  0
  3 27  1  0
  3 28  1  0
  4 29  1  0
  4 30  1  0
  5 31  1  0
  8 32  1  0
  8 33  1  0
 10 34  1  0
 12 35  1  0
 13 36  1  0
 18 37  1  0
 19 38  1  0
 20 39  1  0
 23 40  1  0
 23 41  1  0
M  END
>  <Energy>  (1278) 
147.12098901960005

>  <compound_id>  (1278) 
69268

>  <target_id>  (1278) 
1

>  <reference_id>  (1278) 
54

>  <inspiration_ids>  (1278) 
[82, 54]

>  <energy_score>  (1278) 
32.097565605127954

>  <distance_score>  (1278) 
4.1321217377077994

>  <path>  (1278) 
/opt/xchem-fragalysis-2/maxwin/BulkDock/SCRATCH/511022/C69268-P54/C69268-P54.minimised.mol

>  <scratch_subdir>  (1278) 
/opt/xchem-fragalysis-2/maxwin/BulkDock/SCRATCH/511022/C69268-P54

>  <fragmenstein_runtime>  (1278) 
8.759302854537964

>  <fragmenstein_outcome>  (1278) 
too moved

>  <fragmenstein_mode>  (1278) 
expansion

>  <fragmenstein_error>  (1278) 


$$$$
C69269-P82
     RDKit          3D

 37 38  0  0  0  0  0  0  0  0999 V2000
  -10.4836  -24.8312   27.4599 C   0  0  0  0  0  0  0  0  0  0  0  0
  -11.7878  -24.5730   28.1224 N   0  0  0  0  0  0  0  0  0  0  0  0
  -11.9179  -23.6267   27.0277 C   0  0  0  0  0  0  0  0  0  0  0  0
  -12.0157  -22.2925   27.8125 C   0  0  0  0  0  0  0  0  0  0  0  0
  -11.5224  -22.1825   29.1941 N   0  0  0  0  0  0  0  0  0  0  0  0
  -12.2380  -22.1633   30.4695 C   0  0  0  0  0  0  0  0  0  0  0  0
  -13.4155  -22.1523   30.7060 O   0  0  0  0  0  0  0  0  0  0  0  0
  -11.3520  -22.2515   31.7343 C   0  0  0  0  0  0  0  0  0  0  0  0
  -10.5211  -23.4662   31.8600 N   0  0  0  0  0  0  0  0  0  0  0  0
  -10.0411  -24.2696   30.8524 C   0  0  0  0  0  0  0  0  0  0  0  0
   -9.0774  -25.0457   31.2451 N   0  0  0  0  0  0  0  0  0  0  0  0
   -9.0361  -24.7821   32.5624 C   0  0  0  0  0  0  0  0  0  0  0  0
   -9.8089  -23.7652   32.9493 N   0  0  0  0  0  0  0  0  0  0  0  0
  -12.4371  -25.7635   28.3719 C   0  0  0  0  0  0  0  0  0  0  0  0
  -13.2164  -26.3811   27.7078 O   0  0  0  0  0  0  0  0  0  0  0  0
  -12.0208  -26.0800   29.7522 C   0  0  0  0  0  0  0  0  0  0  0  0
  -11.0487  -26.9748   30.0665 C   0  0  0  0  0  0  0  0  0  0  0  0
  -10.6003  -27.1749   31.3236 N   0  0  0  0  0  0  0  0  0  0  0  0
  -11.1273  -26.3818   32.3221 C   0  0  0  0  0  0  0  0  0  0  0  0
  -12.1284  -25.4352   32.1097 C   0  0  0  0  0  0  0  0  0  0  0  0
  -12.8947  -24.5516   33.3833 Cl  0  0  0  0  0  0  0  0  0  0  0  0
  -12.5166  -25.2513   30.7814 C   0  0  0  0  0  0  0  0  0  0  0  0
   -9.8239  -23.9564   27.4436 H   0  0  0  0  0  0  0  0  0  0  0  0
  -10.6135  -25.3695   26.5087 H   0  0  0  0  0  0  0  0  0  0  0  0
   -9.9322  -25.5562   28.0718 H   0  0  0  0  0  0  0  0  0  0  0  0
  -12.9071  -23.8202   26.5829 H   0  0  0  0  0  0  0  0  0  0  0  0
  -11.2963  -23.5452   26.1215 H   0  0  0  0  0  0  0  0  0  0  0  0
  -13.0607  -22.1980   27.9449 H   0  0  0  0  0  0  0  0  0  0  0  0
  -11.6031  -21.5053   27.2052 H   0  0  0  0  0  0  0  0  0  0  0  0
  -10.5482  -22.1041   29.3664 H   0  0  0  0  0  0  0  0  0  0  0  0
  -10.7263  -21.3565   31.8052 H   0  0  0  0  0  0  0  0  0  0  0  0
  -11.9899  -22.2062   32.6213 H   0  0  0  0  0  0  0  0  0  0  0  0
  -10.3763  -24.1882   29.8488 H   0  0  0  0  0  0  0  0  0  0  0  0
   -8.4687  -25.3999   33.2396 H   0  0  0  0  0  0  0  0  0  0  0  0
  -10.5503  -27.4910   29.2871 H   0  0  0  0  0  0  0  0  0  0  0  0
  -10.7301  -26.5653   33.3125 H   0  0  0  0  0  0  0  0  0  0  0  0
  -13.2721  -24.5112   30.5496 H   0  0  0  0  0  0  0  0  0  0  0  0
  1  2  1  0
  2  3  1  0
  3  4  1  0
  4  5  1  0
  5  6  1  0
  6  7  2  0
  6  8  1  0
  8  9  1  0
  9 10  1  0
 10 11  2  0
 11 12  1  0
 12 13  2  0
  2 14  1  0
 14 15  2  0
 14 16  1  0
 16 17  2  0
 17 18  1  0
 18 19  2  0
 19 20  1  0
 20 21  1  0
 20 22  2  0
 13  9  1  0
 22 16  1  0
  1 23  1  0
  1 24  1  0
  1 25  1  0
  3 26  1  0
  3 27  1  0
  4 28  1  0
  4 29  1  0
  5 30  1  0
  8 31  1  0
  8 32  1  0
 10 33  1  0
 12 34  1  0
 17 35  1  0
 19 36  1  0
 22 37  1  0
M  END
>  <Energy>  (1279) 
223.59101962402571

>  <compound_id>  (1279) 
69269

>  <target_id>  (1279) 
1

>  <reference_id>  (1279) 
82

>  <inspiration_ids>  (1279) 
[82, 54]

>  <energy_score>  (1279) 
149.21793908669864

>  <distance_score>  (1279) 
2.001829675207227

>  <path>  (1279) 
/opt/xchem-fragalysis-2/maxwin/BulkDock/SCRATCH/511022/C69269-P82/C69269-P82.minimised.mol

>  <scratch_subdir>  (1279) 
/opt/xchem-fragalysis-2/maxwin/BulkDock/SCRATCH/511022/C69269-P82

>  <fragmenstein_runtime>  (1279) 
7.530197858810425

>  <fragmenstein_outcome>  (1279) 
too moved

>  <fragmenstein_mode>  (1279) 
expansion

>  <fragmenstein_error>  (1279) 


$$$$
C69269-P54
     RDKit          3D

 37 38  0  0  0  0  0  0  0  0999 V2000
  -10.0039  -23.7240   28.2742 C   0  0  0  0  0  0  0  0  0  0  0  0
  -11.2762  -23.6427   29.0739 N   0  0  0  0  0  0  0  0  0  0  0  0
  -11.0409  -22.1494   28.8855 C   0  0  0  0  0  0  0  0  0  0  0  0
  -11.9945  -21.3917   29.8404 C   0  0  0  0  0  0  0  0  0  0  0  0
  -11.6376  -21.5561   31.2234 N   0  0  0  0  0  0  0  0  0  0  0  0
  -11.1155  -20.6206   32.1787 C   0  0  0  0  0  0  0  0  0  0  0  0
  -10.9172  -19.4435   32.0911 O   0  0  0  0  0  0  0  0  0  0  0  0
  -10.6692  -21.3214   33.4596 C   0  0  0  0  0  0  0  0  0  0  0  0
   -9.7485  -22.4278   33.2547 N   0  0  0  0  0  0  0  0  0  0  0  0
   -9.1888  -22.8667   32.0960 C   0  0  0  0  0  0  0  0  0  0  0  0
   -8.7159  -24.0735   32.2553 N   0  0  0  0  0  0  0  0  0  0  0  0
   -8.8119  -24.2539   33.5941 C   0  0  0  0  0  0  0  0  0  0  0  0
   -9.4502  -23.2854   34.2578 N   0  0  0  0  0  0  0  0  0  0  0  0
  -12.2553  -24.5014   28.5191 C   0  0  0  0  0  0  0  0  0  0  0  0
  -13.0967  -24.2925   27.6886 O   0  0  0  0  0  0  0  0  0  0  0  0
  -12.2598  -25.8547   29.1351 C   0  0  0  0  0  0  0  0  0  0  0  0
  -12.7245  -26.9232   28.3772 C   0  0  0  0  0  0  0  0  0  0  0  0
  -12.8594  -28.1852   28.8517 N   0  0  0  0  0  0  0  0  0  0  0  0
  -12.5796  -28.3695   30.1612 C   0  0  0  0  0  0  0  0  0  0  0  0
  -12.1337  -27.3599   30.9984 C   0  0  0  0  0  0  0  0  0  0  0  0
  -11.9272  -27.6851   32.6679 Cl  0  0  0  0  0  0  0  0  0  0  0  0
  -11.9145  -26.0908   30.4675 C   0  0  0  0  0  0  0  0  0  0  0  0
   -9.1114  -23.4086   28.8334 H   0  0  0  0  0  0  0  0  0  0  0  0
  -10.0713  -23.3254   27.2500 H   0  0  0  0  0  0  0  0  0  0  0  0
   -9.8222  -24.7971   28.1104 H   0  0  0  0  0  0  0  0  0  0  0  0
  -10.0455  -21.7684   29.1402 H   0  0  0  0  0  0  0  0  0  0  0  0
  -11.3463  -21.8490   27.8708 H   0  0  0  0  0  0  0  0  0  0  0  0
  -13.0144  -21.7598   29.7442 H   0  0  0  0  0  0  0  0  0  0  0  0
  -11.9495  -20.3234   29.6130 H   0  0  0  0  0  0  0  0  0  0  0  0
  -11.7469  -22.4616   31.6718 H   0  0  0  0  0  0  0  0  0  0  0  0
  -11.5327  -21.6759   34.0159 H   0  0  0  0  0  0  0  0  0  0  0  0
  -10.1474  -20.5983   34.0809 H   0  0  0  0  0  0  0  0  0  0  0  0
   -9.1912  -22.3150   31.1738 H   0  0  0  0  0  0  0  0  0  0  0  0
   -8.4263  -25.1326   34.0911 H   0  0  0  0  0  0  0  0  0  0  0  0
  -13.0190  -26.7922   27.3378 H   0  0  0  0  0  0  0  0  0  0  0  0
  -12.7425  -29.3799   30.5291 H   0  0  0  0  0  0  0  0  0  0  0  0
  -11.5285  -25.2885   31.0878 H   0  0  0  0  0  0  0  0  0  0  0  0
  1  2  1  0
  2  3  1  0
  3  4  1  0
  4  5  1  0
  5  6  1  0
  6  7  2  0
  6  8  1  0
  8  9  1  0
  9 10  1  0
 10 11  2  0
 11 12  1  0
 12 13  2  0
  2 14  1  0
 14 15  2  0
 14 16  1  0
 16 17  2  0
 17 18  1  0
 18 19  2  0
 19 20  1  0
 20 21  1  0
 20 22  2  0
 13  9  1  0
 22 16  1  0
  1 23  1  0
  1 24  1  0
  1 25  1  0
  3 26  1  0
  3 27  1  0
  4 28  1  0
  4 29  1  0
  5 30  1  0
  8 31  1  0
  8 32  1  0
 10 33  1  0
 12 34  1  0
 17 35  1  0
 19 36  1  0
 22 37  1  0
M  END
>  <Energy>  (1280) 
112.75707394645558

>  <compound_id>  (1280) 
69269

>  <target_id>  (1280) 
1

>  <reference_id>  (1280) 
54

>  <inspiration_ids>  (1280) 
[82, 54]

>  <energy_score>  (1280) 
38.383993409127925

>  <distance_score>  (1280) 
2.643193004042693

>  <path>  (1280) 
/opt/xchem-fragalysis-2/maxwin/BulkDock/SCRATCH/511022/C69269-P54/C69269-P54.minimised.mol

>  <scratch_subdir>  (1280) 
/opt/xchem-fragalysis-2/maxwin/BulkDock/SCRATCH/511022/C69269-P54

>  <fragmenstein_runtime>  (1280) 
8.617352724075317

>  <fragmenstein_outcome>  (1280) 
too moved

>  <fragmenstein_mode>  (1280) 
expansion

>  <fragmenstein_error>  (1280) 


$$$$
C69271-P82
     RDKit          3D

 42 43  0  0  0  0  0  0  0  0999 V2000
  -12.1868  -23.5841   31.2431 C   0  0  0  0  0  0  0  0  0  0  0  0
  -11.5101  -23.3157   29.9856 N   0  0  0  0  0  0  0  0  0  0  0  0
  -11.7068  -24.2408   28.9674 C   0  0  0  0  0  0  0  0  0  0  0  0
  -11.5799  -25.6122   29.1473 C   0  0  0  0  0  0  0  0  0  0  0  0
  -11.8552  -26.4747   28.0825 C   0  0  0  0  0  0  0  0  0  0  0  0
  -12.2317  -25.9433   26.8587 C   0  0  0  0  0  0  0  0  0  0  0  0
  -12.5330  -26.7636   25.6606 C   0  0  0  0  0  0  0  0  0  0  0  0
  -11.6401  -26.8775   24.8640 O   0  0  0  0  0  0  0  0  0  0  0  0
  -13.8893  -27.2120   25.6067 N   0  0  0  0  0  0  0  0  0  0  0  0
  -14.6545  -27.8613   24.5068 C   0  0  0  0  0  0  0  0  0  0  0  0
  -14.0080  -28.6219   26.2204 C   0  0  0  0  0  0  0  0  0  0  0  0
  -15.3469  -29.0244   26.9065 C   0  0  0  0  0  0  0  0  0  0  0  0
  -15.1741  -30.0452   27.9178 N   0  0  0  0  0  0  0  0  0  0  0  0
  -14.2919  -30.1090   29.0533 C   0  0  0  0  0  0  0  0  0  0  0  0
  -13.4189  -29.3678   29.4071 O   0  0  0  0  0  0  0  0  0  0  0  0
  -14.6033  -31.3273   29.9111 C   0  0  0  0  0  0  0  0  0  0  0  0
  -13.3706  -31.8457   30.4618 N   0  0  0  0  0  0  0  0  0  0  0  0
  -12.4775  -32.4537   29.6589 N   0  0  0  0  0  0  0  0  0  0  0  0
  -11.5460  -32.8305   30.5365 C   0  0  0  0  0  0  0  0  0  0  0  0
  -11.9324  -32.4603   31.8292 C   0  0  0  0  0  0  0  0  0  0  0  0
  -13.1245  -31.8580   31.7897 N   0  0  0  0  0  0  0  0  0  0  0  0
  -12.2466  -24.5609   26.7376 C   0  0  0  0  0  0  0  0  0  0  0  0
  -11.9912  -23.7079   27.7626 N   0  0  0  0  0  0  0  0  0  0  0  0
  -11.7764  -24.4658   31.7452 H   0  0  0  0  0  0  0  0  0  0  0  0
  -13.2637  -23.7089   31.1089 H   0  0  0  0  0  0  0  0  0  0  0  0
  -12.0350  -22.7321   31.9139 H   0  0  0  0  0  0  0  0  0  0  0  0
  -11.7971  -22.4352   29.5613 H   0  0  0  0  0  0  0  0  0  0  0  0
  -11.2914  -26.0215   30.1093 H   0  0  0  0  0  0  0  0  0  0  0  0
  -11.7780  -27.5431   28.2370 H   0  0  0  0  0  0  0  0  0  0  0  0
  -14.1155  -28.6336   23.9393 H   0  0  0  0  0  0  0  0  0  0  0  0
  -14.7381  -27.0500   23.7689 H   0  0  0  0  0  0  0  0  0  0  0  0
  -15.7052  -28.0756   24.7233 H   0  0  0  0  0  0  0  0  0  0  0  0
  -13.2828  -28.5885   27.0397 H   0  0  0  0  0  0  0  0  0  0  0  0
  -13.5636  -29.4372   25.6212 H   0  0  0  0  0  0  0  0  0  0  0  0
  -16.0720  -29.4267   26.1938 H   0  0  0  0  0  0  0  0  0  0  0  0
  -15.7907  -28.1538   27.3980 H   0  0  0  0  0  0  0  0  0  0  0  0
  -15.7359  -30.8906   27.8873 H   0  0  0  0  0  0  0  0  0  0  0  0
  -15.2639  -31.0300   30.7311 H   0  0  0  0  0  0  0  0  0  0  0  0
  -15.0674  -32.1386   29.3430 H   0  0  0  0  0  0  0  0  0  0  0  0
  -10.6568  -33.3447   30.1977 H   0  0  0  0  0  0  0  0  0  0  0  0
  -11.4186  -32.6148   32.7666 H   0  0  0  0  0  0  0  0  0  0  0  0
  -12.4770  -24.0749   25.7929 H   0  0  0  0  0  0  0  0  0  0  0  0
  1  2  1  0
  2  3  1  0
  3  4  2  0
  4  5  1  0
  5  6  2  0
  6  7  1  0
  7  8  2  0
  7  9  1  0
  9 10  1  0
  9 11  1  0
 11 12  1  0
 12 13  1  0
 13 14  1  0
 14 15  2  0
 14 16  1  0
 16 17  1  0
 17 18  1  0
 18 19  2  0
 19 20  1  0
 20 21  2  0
  6 22  1  0
 22 23  2  0
 23  3  1  0
 21 17  1  0
  1 24  1  0
  1 25  1  0
  1 26  1  0
  2 27  1  0
  4 28  1  0
  5 29  1  0
 10 30  1  0
 10 31  1  0
 10 32  1  0
 11 33  1  0
 11 34  1  0
 12 35  1  0
 12 36  1  0
 13 37  1  0
 16 38  1  0
 16 39  1  0
 19 40  1  0
 20 41  1  0
 22 42  1  0
M  END
>  <Energy>  (1281) 
86.119578132613199

>  <compound_id>  (1281) 
69271

>  <target_id>  (1281) 
1

>  <reference_id>  (1281) 
82

>  <inspiration_ids>  (1281) 
[82, 54]

>  <energy_score>  (1281) 
39.435116389469485

>  <distance_score>  (1281) 
4.971586824495536

>  <path>  (1281) 
/opt/xchem-fragalysis-2/maxwin/BulkDock/SCRATCH/511022/C69271-P82/C69271-P82.minimised.mol

>  <scratch_subdir>  (1281) 
/opt/xchem-fragalysis-2/maxwin/BulkDock/SCRATCH/511022/C69271-P82

>  <fragmenstein_runtime>  (1281) 
11.437042474746704

>  <fragmenstein_outcome>  (1281) 
too moved

>  <fragmenstein_mode>  (1281) 
expansion

>  <fragmenstein_error>  (1281) 


$$$$
C69271-P54
     RDKit          3D

 42 43  0  0  0  0  0  0  0  0999 V2000
  -11.2362  -21.5467   28.9259 C   0  0  0  0  0  0  0  0  0  0  0  0
  -12.0257  -22.6340   29.4536 N   0  0  0  0  0  0  0  0  0  0  0  0
  -12.6064  -23.5333   28.5815 C   0  0  0  0  0  0  0  0  0  0  0  0
  -11.9653  -24.0967   27.4861 C   0  0  0  0  0  0  0  0  0  0  0  0
  -12.6384  -25.0434   26.7063 C   0  0  0  0  0  0  0  0  0  0  0  0
  -13.9753  -25.3203   26.9690 C   0  0  0  0  0  0  0  0  0  0  0  0
  -14.7738  -26.2122   26.1000 C   0  0  0  0  0  0  0  0  0  0  0  0
  -15.7061  -25.7055   25.5366 O   0  0  0  0  0  0  0  0  0  0  0  0
  -14.2351  -27.5290   26.0021 N   0  0  0  0  0  0  0  0  0  0  0  0
  -14.5851  -28.6586   25.0922 C   0  0  0  0  0  0  0  0  0  0  0  0
  -14.9082  -28.4705   27.0543 C   0  0  0  0  0  0  0  0  0  0  0  0
  -14.7812  -28.0006   28.5260 C   0  0  0  0  0  0  0  0  0  0  0  0
  -13.4365  -27.6257   28.8712 N   0  0  0  0  0  0  0  0  0  0  0  0
  -12.9144  -26.9122   30.0206 C   0  0  0  0  0  0  0  0  0  0  0  0
  -13.4609  -26.5239   31.0122 O   0  0  0  0  0  0  0  0  0  0  0  0
  -11.4196  -26.7455   29.8318 C   0  0  0  0  0  0  0  0  0  0  0  0
  -10.8362  -25.5516   30.4298 N   0  0  0  0  0  0  0  0  0  0  0  0
   -9.9926  -24.7823   29.6808 N   0  0  0  0  0  0  0  0  0  0  0  0
   -9.4499  -23.9908   30.6097 C   0  0  0  0  0  0  0  0  0  0  0  0
   -9.8423  -24.4133   31.8749 C   0  0  0  0  0  0  0  0  0  0  0  0
  -10.6473  -25.4754   31.7644 N   0  0  0  0  0  0  0  0  0  0  0  0
  -14.5519  -24.6894   28.0443 C   0  0  0  0  0  0  0  0  0  0  0  0
  -13.8692  -23.8770   28.8899 N   0  0  0  0  0  0  0  0  0  0  0  0
  -10.9630  -20.8694   29.7406 H   0  0  0  0  0  0  0  0  0  0  0  0
  -11.7903  -20.9692   28.1836 H   0  0  0  0  0  0  0  0  0  0  0  0
  -10.3085  -21.9043   28.4690 H   0  0  0  0  0  0  0  0  0  0  0  0
  -12.7058  -22.3773   30.1670 H   0  0  0  0  0  0  0  0  0  0  0  0
  -10.9338  -23.8463   27.2635 H   0  0  0  0  0  0  0  0  0  0  0  0
  -12.1308  -25.5369   25.8871 H   0  0  0  0  0  0  0  0  0  0  0  0
  -15.6604  -28.8421   24.9521 H   0  0  0  0  0  0  0  0  0  0  0  0
  -13.9668  -29.5573   25.2224 H   0  0  0  0  0  0  0  0  0  0  0  0
  -14.2831  -28.2820   24.1039 H   0  0  0  0  0  0  0  0  0  0  0  0
  -14.4329  -29.4655   27.0821 H   0  0  0  0  0  0  0  0  0  0  0  0
  -15.9946  -28.5432   26.8825 H   0  0  0  0  0  0  0  0  0  0  0  0
  -15.4472  -27.1618   28.7413 H   0  0  0  0  0  0  0  0  0  0  0  0
  -15.0819  -28.8080   29.2031 H   0  0  0  0  0  0  0  0  0  0  0  0
  -12.7020  -27.7200   28.1774 H   0  0  0  0  0  0  0  0  0  0  0  0
  -10.9488  -27.6243   30.2783 H   0  0  0  0  0  0  0  0  0  0  0  0
  -11.1480  -26.7244   28.7715 H   0  0  0  0  0  0  0  0  0  0  0  0
   -8.7895  -23.1879   30.3222 H   0  0  0  0  0  0  0  0  0  0  0  0
   -9.5692  -24.0300   32.8472 H   0  0  0  0  0  0  0  0  0  0  0  0
  -15.5985  -24.8413   28.2917 H   0  0  0  0  0  0  0  0  0  0  0  0
  1  2  1  0
  2  3  1  0
  3  4  2  0
  4  5  1  0
  5  6  2  0
  6  7  1  0
  7  8  2  0
  7  9  1  0
  9 10  1  0
  9 11  1  0
 11 12  1  0
 12 13  1  0
 13 14  1  0
 14 15  2  0
 14 16  1  0
 16 17  1  0
 17 18  1  0
 18 19  2  0
 19 20  1  0
 20 21  2  0
  6 22  1  0
 22 23  2  0
 23  3  1  0
 21 17  1  0
  1 24  1  0
  1 25  1  0
  1 26  1  0
  2 27  1  0
  4 28  1  0
  5 29  1  0
 10 30  1  0
 10 31  1  0
 10 32  1  0
 11 33  1  0
 11 34  1  0
 12 35  1  0
 12 36  1  0
 13 37  1  0
 16 38  1  0
 16 39  1  0
 19 40  1  0
 20 41  1  0
 22 42  1  0
M  END
>  <Energy>  (1282) 
91.870635321365327

>  <compound_id>  (1282) 
69271

>  <target_id>  (1282) 
1

>  <reference_id>  (1282) 
54

>  <inspiration_ids>  (1282) 
[82, 54]

>  <energy_score>  (1282) 
45.18617357822028

>  <distance_score>  (1282) 
3.2772330142381856

>  <path>  (1282) 
/opt/xchem-fragalysis-2/maxwin/BulkDock/SCRATCH/511022/C69271-P54/C69271-P54.minimised.mol

>  <scratch_subdir>  (1282) 
/opt/xchem-fragalysis-2/maxwin/BulkDock/SCRATCH/511022/C69271-P54

>  <fragmenstein_runtime>  (1282) 
8.746142387390137

>  <fragmenstein_outcome>  (1282) 
too moved

>  <fragmenstein_mode>  (1282) 
expansion

>  <fragmenstein_error>  (1282) 


$$$$
C69272-P82
     RDKit          3D

 44 45  0  0  0  0  0  0  0  0999 V2000
  -14.0138  -27.9839   25.6520 C   0  0  0  0  0  0  0  0  0  0  0  0
  -13.0070  -26.8545   25.7644 C   0  0  0  0  0  0  0  0  0  0  0  0
  -13.1014  -26.3169   27.0799 O   0  0  0  0  0  0  0  0  0  0  0  0
  -12.3635  -25.2028   27.3296 C   0  0  0  0  0  0  0  0  0  0  0  0
  -11.3470  -24.6903   26.5996 C   0  0  0  0  0  0  0  0  0  0  0  0
  -10.6862  -23.5981   26.9966 N   0  0  0  0  0  0  0  0  0  0  0  0
  -11.1370  -22.8729   28.0593 C   0  0  0  0  0  0  0  0  0  0  0  0
  -12.1432  -23.2582   28.8903 C   0  0  0  0  0  0  0  0  0  0  0  0
  -12.5291  -22.2920   30.0540 C   0  0  0  0  0  0  0  0  0  0  0  0
  -11.7741  -21.3483   30.1046 O   0  0  0  0  0  0  0  0  0  0  0  0
  -13.7370  -22.5760   30.8191 N   0  0  0  0  0  0  0  0  0  0  0  0
  -14.4745  -21.7526   31.8130 C   0  0  0  0  0  0  0  0  0  0  0  0
  -13.4000  -23.3682   32.0640 C   0  0  0  0  0  0  0  0  0  0  0  0
  -11.9875  -23.1218   32.5688 C   0  0  0  0  0  0  0  0  0  0  0  0
  -11.0381  -23.8748   31.8048 N   0  0  0  0  0  0  0  0  0  0  0  0
  -11.2129  -25.0250   30.9460 C   0  0  0  0  0  0  0  0  0  0  0  0
  -12.2013  -25.5890   30.5912 O   0  0  0  0  0  0  0  0  0  0  0  0
   -9.9394  -25.6501   30.5310 C   0  0  0  0  0  0  0  0  0  0  0  0
   -9.5923  -26.1337   31.8356 N   0  0  0  0  0  0  0  0  0  0  0  0
  -10.6659  -26.5427   32.6213 N   0  0  0  0  0  0  0  0  0  0  0  0
  -10.4474  -25.9034   33.7567 C   0  0  0  0  0  0  0  0  0  0  0  0
   -9.1416  -25.4693   33.7220 C   0  0  0  0  0  0  0  0  0  0  0  0
   -8.6441  -25.4268   32.4971 N   0  0  0  0  0  0  0  0  0  0  0  0
  -12.6769  -24.4911   28.4823 C   0  0  0  0  0  0  0  0  0  0  0  0
  -15.0199  -27.6312   25.9026 H   0  0  0  0  0  0  0  0  0  0  0  0
  -14.0273  -28.3917   24.6385 H   0  0  0  0  0  0  0  0  0  0  0  0
  -13.7723  -28.7868   26.3562 H   0  0  0  0  0  0  0  0  0  0  0  0
  -13.2618  -26.0854   25.0296 H   0  0  0  0  0  0  0  0  0  0  0  0
  -11.9997  -27.2429   25.5764 H   0  0  0  0  0  0  0  0  0  0  0  0
  -11.0080  -25.1198   25.6700 H   0  0  0  0  0  0  0  0  0  0  0  0
  -10.6260  -21.9306   28.2099 H   0  0  0  0  0  0  0  0  0  0  0  0
  -14.9516  -20.9610   31.2269 H   0  0  0  0  0  0  0  0  0  0  0  0
  -15.3708  -22.2549   32.2155 H   0  0  0  0  0  0  0  0  0  0  0  0
  -13.8629  -21.2453   32.5700 H   0  0  0  0  0  0  0  0  0  0  0  0
  -13.4972  -24.3898   31.7405 H   0  0  0  0  0  0  0  0  0  0  0  0
  -14.0889  -23.4095   32.9316 H   0  0  0  0  0  0  0  0  0  0  0  0
  -11.9127  -23.4875   33.5972 H   0  0  0  0  0  0  0  0  0  0  0  0
  -11.6900  -22.0697   32.5827 H   0  0  0  0  0  0  0  0  0  0  0  0
  -10.0464  -23.7210   31.9559 H   0  0  0  0  0  0  0  0  0  0  0  0
   -9.2147  -24.9529   30.1326 H   0  0  0  0  0  0  0  0  0  0  0  0
  -10.0869  -26.5001   29.8627 H   0  0  0  0  0  0  0  0  0  0  0  0
  -11.1520  -25.9078   34.5676 H   0  0  0  0  0  0  0  0  0  0  0  0
   -8.5482  -25.2664   34.5873 H   0  0  0  0  0  0  0  0  0  0  0  0
  -13.4106  -24.9750   29.1061 H   0  0  0  0  0  0  0  0  0  0  0  0
  1  2  1  0
  2  3  1  0
  3  4  1  0
  4  5  2  0
  5  6  1  0
  6  7  2  0
  7  8  1  0
  8  9  1  0
  9 10  2  0
  9 11  1  0
 11 12  1  0
 11 13  1  0
 13 14  1  0
 14 15  1  0
 15 16  1  0
 16 17  2  0
 16 18  1  0
 18 19  1  0
 19 20  1  0
 20 21  2  0
 21 22  1  0
 22 23  2  0
  8 24  2  0
 24  4  1  0
 23 19  1  0
  1 25  1  0
  1 26  1  0
  1 27  1  0
  2 28  1  0
  2 29  1  0
  5 30  1  0
  7 31  1  0
 12 32  1  0
 12 33  1  0
 12 34  1  0
 13 35  1  0
 13 36  1  0
 14 37  1  0
 14 38  1  0
 15 39  1  0
 18 40  1  0
 18 41  1  0
 21 42  1  0
 22 43  1  0
 24 44  1  0
M  END
>  <Energy>  (1283) 
217.71897792179945

>  <compound_id>  (1283) 
69272

>  <target_id>  (1283) 
1

>  <reference_id>  (1283) 
82

>  <inspiration_ids>  (1283) 
[82, 54]

>  <energy_score>  (1283) 
118.96236838280822

>  <distance_score>  (1283) 
2.8885928401267065

>  <path>  (1283) 
/opt/xchem-fragalysis-2/maxwin/BulkDock/SCRATCH/511022/C69272-P82/C69272-P82.minimised.mol

>  <scratch_subdir>  (1283) 
/opt/xchem-fragalysis-2/maxwin/BulkDock/SCRATCH/511022/C69272-P82

>  <fragmenstein_runtime>  (1283) 
8.50943398475647

>  <fragmenstein_outcome>  (1283) 
too moved

>  <fragmenstein_mode>  (1283) 
expansion

>  <fragmenstein_error>  (1283) 


$$$$
C69272-P54
     RDKit          3D

 44 45  0  0  0  0  0  0  0  0999 V2000
  -14.8999  -25.4816   26.9451 C   0  0  0  0  0  0  0  0  0  0  0  0
  -13.5435  -24.8014   26.9437 C   0  0  0  0  0  0  0  0  0  0  0  0
  -13.2644  -24.3615   28.2769 O   0  0  0  0  0  0  0  0  0  0  0  0
  -12.2162  -23.4915   28.3850 C   0  0  0  0  0  0  0  0  0  0  0  0
  -11.1116  -23.4595   27.5533 C   0  0  0  0  0  0  0  0  0  0  0  0
  -10.1883  -22.4844   27.6002 N   0  0  0  0  0  0  0  0  0  0  0  0
  -10.4098  -21.4906   28.4938 C   0  0  0  0  0  0  0  0  0  0  0  0
  -11.3883  -21.4962   29.4619 C   0  0  0  0  0  0  0  0  0  0  0  0
  -11.5700  -20.3076   30.3438 C   0  0  0  0  0  0  0  0  0  0  0  0
  -11.2717  -19.2633   29.8310 O   0  0  0  0  0  0  0  0  0  0  0  0
  -12.1536  -20.5812   31.6095 N   0  0  0  0  0  0  0  0  0  0  0  0
  -12.6872  -19.6550   32.6652 C   0  0  0  0  0  0  0  0  0  0  0  0
  -11.0501  -20.7916   32.6821 C   0  0  0  0  0  0  0  0  0  0  0  0
   -9.8241  -21.5836   32.2431 C   0  0  0  0  0  0  0  0  0  0  0  0
   -9.8276  -22.9855   32.2780 N   0  0  0  0  0  0  0  0  0  0  0  0
   -9.5190  -23.8903   33.3228 C   0  0  0  0  0  0  0  0  0  0  0  0
   -9.2524  -23.6964   34.4718 O   0  0  0  0  0  0  0  0  0  0  0  0
   -9.4545  -25.2658   32.7545 C   0  0  0  0  0  0  0  0  0  0  0  0
  -10.6333  -25.7446   32.0411 N   0  0  0  0  0  0  0  0  0  0  0  0
  -10.8942  -25.3607   30.7693 N   0  0  0  0  0  0  0  0  0  0  0  0
  -11.8071  -26.2655   30.3973 C   0  0  0  0  0  0  0  0  0  0  0  0
  -12.1163  -27.1162   31.4601 C   0  0  0  0  0  0  0  0  0  0  0  0
  -11.3795  -26.7857   32.5209 N   0  0  0  0  0  0  0  0  0  0  0  0
  -12.2963  -22.5361   29.4010 C   0  0  0  0  0  0  0  0  0  0  0  0
  -15.6799  -24.7851   27.2685 H   0  0  0  0  0  0  0  0  0  0  0  0
  -15.1503  -25.8522   25.9470 H   0  0  0  0  0  0  0  0  0  0  0  0
  -14.9098  -26.3212   27.6479 H   0  0  0  0  0  0  0  0  0  0  0  0
  -13.5670  -23.9527   26.2492 H   0  0  0  0  0  0  0  0  0  0  0  0
  -12.7848  -25.5244   26.6236 H   0  0  0  0  0  0  0  0  0  0  0  0
  -10.9337  -24.2034   26.7864 H   0  0  0  0  0  0  0  0  0  0  0  0
   -9.7713  -20.6256   28.3862 H   0  0  0  0  0  0  0  0  0  0  0  0
  -13.6448  -19.3164   32.2458 H   0  0  0  0  0  0  0  0  0  0  0  0
  -12.9654  -20.1030   33.6294 H   0  0  0  0  0  0  0  0  0  0  0  0
  -12.1195  -18.7189   32.7615 H   0  0  0  0  0  0  0  0  0  0  0  0
  -11.4476  -21.3163   33.5633 H   0  0  0  0  0  0  0  0  0  0  0  0
  -10.5830  -19.8311   32.9580 H   0  0  0  0  0  0  0  0  0  0  0  0
   -9.6029  -21.4381   31.2071 H   0  0  0  0  0  0  0  0  0  0  0  0
   -8.9684  -21.2687   32.8517 H   0  0  0  0  0  0  0  0  0  0  0  0
  -10.0855  -23.5170   31.4428 H   0  0  0  0  0  0  0  0  0  0  0  0
   -9.1821  -25.9848   33.5283 H   0  0  0  0  0  0  0  0  0  0  0  0
   -8.6364  -25.2064   32.0339 H   0  0  0  0  0  0  0  0  0  0  0  0
  -12.1933  -26.2746   29.3905 H   0  0  0  0  0  0  0  0  0  0  0  0
  -12.8061  -27.9478   31.5118 H   0  0  0  0  0  0  0  0  0  0  0  0
  -13.1395  -22.5049   30.0651 H   0  0  0  0  0  0  0  0  0  0  0  0
  1  2  1  0
  2  3  1  0
  3  4  1  0
  4  5  2  0
  5  6  1  0
  6  7  2  0
  7  8  1  0
  8  9  1  0
  9 10  2  0
  9 11  1  0
 11 12  1  0
 11 13  1  0
 13 14  1  0
 14 15  1  0
 15 16  1  0
 16 17  2  0
 16 18  1  0
 18 19  1  0
 19 20  1  0
 20 21  2  0
 21 22  1  0
 22 23  2  0
  8 24  2  0
 24  4  1  0
 23 19  1  0
  1 25  1  0
  1 26  1  0
  1 27  1  0
  2 28  1  0
  2 29  1  0
  5 30  1  0
  7 31  1  0
 12 32  1  0
 12 33  1  0
 12 34  1  0
 13 35  1  0
 13 36  1  0
 14 37  1  0
 14 38  1  0
 15 39  1  0
 18 40  1  0
 18 41  1  0
 21 42  1  0
 22 43  1  0
 24 44  1  0
M  END
>  <Energy>  (1284) 
141.99484529970124

>  <compound_id>  (1284) 
69272

>  <target_id>  (1284) 
1

>  <reference_id>  (1284) 
54

>  <inspiration_ids>  (1284) 
[82, 54]

>  <energy_score>  (1284) 
43.238235760716606

>  <distance_score>  (1284) 
2.8189625184573135

>  <path>  (1284) 
/opt/xchem-fragalysis-2/maxwin/BulkDock/SCRATCH/511022/C69272-P54/C69272-P54.minimised.mol

>  <scratch_subdir>  (1284) 
/opt/xchem-fragalysis-2/maxwin/BulkDock/SCRATCH/511022/C69272-P54

>  <fragmenstein_runtime>  (1284) 
12.316177606582642

>  <fragmenstein_outcome>  (1284) 
too moved

>  <fragmenstein_mode>  (1284) 
expansion

>  <fragmenstein_error>  (1284) 


$$$$
C34639-P82
     RDKit          3D

 46 48  0  0  0  0  0  0  0  0999 V2000
  -12.2526  -23.2729   29.8731 C   0  0  0  0  0  0  0  0  0  0  0  0
  -12.2979  -23.9526   31.2040 N   0  0  0  0  0  0  0  0  0  0  0  0
  -12.5546  -23.0023   32.2276 C   0  0  0  0  0  0  0  0  0  0  0  0
  -11.7996  -22.3529   32.8997 O   0  0  0  0  0  0  0  0  0  0  0  0
  -13.9841  -22.9068   32.5469 C   0  0  0  0  0  0  0  0  0  0  0  0
  -14.9403  -22.1669   31.8773 C   0  0  0  0  0  0  0  0  0  0  0  0
  -16.2679  -22.2755   32.2760 C   0  0  0  0  0  0  0  0  0  0  0  0
  -16.5745  -23.1097   33.3432 C   0  0  0  0  0  0  0  0  0  0  0  0
  -15.6610  -23.8108   34.0416 N   0  0  0  0  0  0  0  0  0  0  0  0
  -14.3850  -23.7040   33.6102 C   0  0  0  0  0  0  0  0  0  0  0  0
  -10.9854  -24.5476   30.6990 C   0  0  0  0  0  0  0  0  0  0  0  0
  -11.2558  -25.9871   30.1489 C   0  0  0  0  0  0  0  0  0  0  0  0
  -11.2707  -26.1919   28.7258 N   0  0  0  0  0  0  0  0  0  0  0  0
  -11.9036  -27.2046   27.9274 C   0  0  0  0  0  0  0  0  0  0  0  0
  -12.6463  -28.0931   28.2343 O   0  0  0  0  0  0  0  0  0  0  0  0
  -11.5733  -27.0069   26.4623 C   0  0  0  0  0  0  0  0  0  0  0  0
  -12.3088  -25.8303   25.9363 C   0  0  0  0  0  0  0  0  0  0  0  0
  -11.7459  -24.5752   25.8900 C   0  0  0  0  0  0  0  0  0  0  0  0
  -12.3861  -23.5050   25.4217 N   0  0  0  0  0  0  0  0  0  0  0  0
  -13.6352  -23.7124   24.9867 C   0  0  0  0  0  0  0  0  0  0  0  0
  -14.3077  -24.8732   25.0390 N   0  0  0  0  0  0  0  0  0  0  0  0
  -13.6231  -25.9159   25.5313 C   0  0  0  0  0  0  0  0  0  0  0  0
  -10.1491  -24.5889   31.9724 C   0  0  0  0  0  0  0  0  0  0  0  0
  -10.3898  -25.6478   33.0028 C   0  0  0  0  0  0  0  0  0  0  0  0
   -9.0921  -25.5894   32.2434 C   0  0  0  0  0  0  0  0  0  0  0  0
  -11.4353  -22.5421   29.7540 H   0  0  0  0  0  0  0  0  0  0  0  0
  -13.0800  -22.5692   29.8698 H   0  0  0  0  0  0  0  0  0  0  0  0
  -12.3921  -23.9275   29.0068 H   0  0  0  0  0  0  0  0  0  0  0  0
  -14.6833  -21.5662   31.0258 H   0  0  0  0  0  0  0  0  0  0  0  0
  -17.0585  -21.7540   31.7507 H   0  0  0  0  0  0  0  0  0  0  0  0
  -17.6017  -23.2412   33.6705 H   0  0  0  0  0  0  0  0  0  0  0  0
  -13.6648  -24.3142   34.1465 H   0  0  0  0  0  0  0  0  0  0  0  0
  -10.3516  -24.0455   29.9705 H   0  0  0  0  0  0  0  0  0  0  0  0
  -10.5760  -26.7529   30.5173 H   0  0  0  0  0  0  0  0  0  0  0  0
  -12.2482  -26.2658   30.4577 H   0  0  0  0  0  0  0  0  0  0  0  0
  -10.6420  -25.6579   28.1429 H   0  0  0  0  0  0  0  0  0  0  0  0
  -10.4946  -26.8967   26.3351 H   0  0  0  0  0  0  0  0  0  0  0  0
  -11.8468  -27.9120   25.9062 H   0  0  0  0  0  0  0  0  0  0  0  0
  -10.7320  -24.3805   26.2178 H   0  0  0  0  0  0  0  0  0  0  0  0
  -14.1420  -22.8768   24.5187 H   0  0  0  0  0  0  0  0  0  0  0  0
  -14.1730  -26.8527   25.5666 H   0  0  0  0  0  0  0  0  0  0  0  0
   -9.9342  -23.6011   32.3571 H   0  0  0  0  0  0  0  0  0  0  0  0
  -11.0242  -26.4847   32.7733 H   0  0  0  0  0  0  0  0  0  0  0  0
  -10.4363  -25.3609   34.0389 H   0  0  0  0  0  0  0  0  0  0  0  0
   -8.2106  -25.3160   32.7885 H   0  0  0  0  0  0  0  0  0  0  0  0
   -8.9034  -26.3829   31.5417 H   0  0  0  0  0  0  0  0  0  0  0  0
  1  2  1  0
  2  3  1  0
  3  4  2  0
  3  5  1  0
  5  6  2  0
  6  7  1  0
  7  8  2  0
  8  9  1  0
  9 10  2  0
  2 11  1  0
 11 12  1  0
 12 13  1  0
 13 14  1  0
 14 15  2  0
 14 16  1  0
 16 17  1  0
 17 18  2  0
 18 19  1  0
 19 20  2  0
 20 21  1  0
 21 22  2  0
 11 23  1  0
 23 24  1  0
 24 25  1  0
 10  5  1  0
 22 17  1  0
 25 23  1  0
  1 26  1  0
  1 27  1  0
  1 28  1  0
  6 29  1  0
  7 30  1  0
  8 31  1  0
 10 32  1  0
 11 33  1  0
 12 34  1  0
 12 35  1  0
 13 36  1  0
 16 37  1  0
 16 38  1  0
 18 39  1  0
 20 40  1  0
 22 41  1  0
 23 42  1  0
 24 43  1  0
 24 44  1  0
 25 45  1  0
 25 46  1  0
M  END
>  <Energy>  (1285) 
148.16103634099437

>  <compound_id>  (1285) 
34639

>  <target_id>  (1285) 
1

>  <reference_id>  (1285) 
82

>  <inspiration_ids>  (1285) 
[82, 54]

>  <energy_score>  (1285) 
58.0707173421402

>  <distance_score>  (1285) 
4.57099521546709

>  <path>  (1285) 
/opt/xchem-fragalysis-2/maxwin/BulkDock/SCRATCH/511022/C34639-P82/C34639-P82.minimised.mol

>  <scratch_subdir>  (1285) 
/opt/xchem-fragalysis-2/maxwin/BulkDock/SCRATCH/511022/C34639-P82

>  <fragmenstein_runtime>  (1285) 
11.945848226547241

>  <fragmenstein_outcome>  (1285) 
too moved

>  <fragmenstein_mode>  (1285) 
expansion

>  <fragmenstein_error>  (1285) 


$$$$
C34639-P54
     RDKit          3D

 46 48  0  0  0  0  0  0  0  0999 V2000
  -12.6920  -26.0825   29.5881 C   0  0  0  0  0  0  0  0  0  0  0  0
  -12.0541  -27.3108   30.1884 N   0  0  0  0  0  0  0  0  0  0  0  0
  -12.4448  -27.4469   31.5466 C   0  0  0  0  0  0  0  0  0  0  0  0
  -11.9322  -27.0352   32.5510 O   0  0  0  0  0  0  0  0  0  0  0  0
  -13.6998  -28.2130   31.7348 C   0  0  0  0  0  0  0  0  0  0  0  0
  -14.4578  -28.7225   30.6822 C   0  0  0  0  0  0  0  0  0  0  0  0
  -15.6621  -29.3545   30.9626 C   0  0  0  0  0  0  0  0  0  0  0  0
  -16.0551  -29.4677   32.2871 C   0  0  0  0  0  0  0  0  0  0  0  0
  -15.3373  -29.0047   33.3316 N   0  0  0  0  0  0  0  0  0  0  0  0
  -14.1733  -28.3886   33.0309 C   0  0  0  0  0  0  0  0  0  0  0  0
  -10.7896  -26.6926   29.5647 C   0  0  0  0  0  0  0  0  0  0  0  0
  -10.5658  -26.7946   28.0023 C   0  0  0  0  0  0  0  0  0  0  0  0
  -10.3534  -25.4129   27.6110 N   0  0  0  0  0  0  0  0  0  0  0  0
  -11.2659  -24.4261   27.1087 C   0  0  0  0  0  0  0  0  0  0  0  0
  -12.4199  -24.5120   26.8058 O   0  0  0  0  0  0  0  0  0  0  0  0
  -10.5844  -23.0574   27.0877 C   0  0  0  0  0  0  0  0  0  0  0  0
  -10.6793  -22.4452   28.4586 C   0  0  0  0  0  0  0  0  0  0  0  0
  -11.4123  -21.3090   28.6903 C   0  0  0  0  0  0  0  0  0  0  0  0
  -11.7227  -20.8418   29.9146 N   0  0  0  0  0  0  0  0  0  0  0  0
  -11.2196  -21.5323   30.9473 C   0  0  0  0  0  0  0  0  0  0  0  0
  -10.3935  -22.5823   30.8476 N   0  0  0  0  0  0  0  0  0  0  0  0
  -10.1259  -22.9972   29.5969 C   0  0  0  0  0  0  0  0  0  0  0  0
   -9.6130  -27.4131   30.4101 C   0  0  0  0  0  0  0  0  0  0  0  0
   -7.6153  -28.4983   30.5913 C   0  0  0  0  0  0  0  0  0  0  0  0
   -7.6805  -26.2211   31.2192 C   0  0  0  0  0  0  0  0  0  0  0  0
  -13.7342  -26.0943   29.9415 H   0  0  0  0  0  0  0  0  0  0  0  0
  -12.8502  -26.1689   28.5131 H   0  0  0  0  0  0  0  0  0  0  0  0
  -12.3547  -25.1024   29.9506 H   0  0  0  0  0  0  0  0  0  0  0  0
  -14.1339  -28.6326   29.6508 H   0  0  0  0  0  0  0  0  0  0  0  0
  -16.2831  -29.7553   30.1689 H   0  0  0  0  0  0  0  0  0  0  0  0
  -16.9900  -29.9556   32.5507 H   0  0  0  0  0  0  0  0  0  0  0  0
  -13.6233  -28.0257   33.8943 H   0  0  0  0  0  0  0  0  0  0  0  0
  -10.6019  -25.6820   29.9601 H   0  0  0  0  0  0  0  0  0  0  0  0
   -9.6891  -27.3775   27.7077 H   0  0  0  0  0  0  0  0  0  0  0  0
  -11.4346  -27.1911   27.4702 H   0  0  0  0  0  0  0  0  0  0  0  0
   -9.4263  -25.0029   27.6789 H   0  0  0  0  0  0  0  0  0  0  0  0
   -9.5434  -23.1195   26.7981 H   0  0  0  0  0  0  0  0  0  0  0  0
  -11.0981  -22.4471   26.3374 H   0  0  0  0  0  0  0  0  0  0  0  0
  -11.7931  -20.7289   27.8614 H   0  0  0  0  0  0  0  0  0  0  0  0
  -11.4914  -21.2049   31.9454 H   0  0  0  0  0  0  0  0  0  0  0  0
   -9.4329  -23.8303   29.5616 H   0  0  0  0  0  0  0  0  0  0  0  0
  -10.1700  -28.3858   30.6383 H   0  0  0  0  0  0  0  0  0  0  0  0
   -7.4861  -28.7417   29.3475 H   0  0  0  0  0  0  0  0  0  0  0  0
   -6.9839  -26.8584   31.1905 H   0  0  0  0  0  0  0  0  0  0  0  0
   -7.1407  -27.9814   30.8986 H   0  0  0  0  0  0  0  0  0  0  0  0
   -7.8109  -25.8122   32.3114 H   0  0  0  0  0  0  0  0  0  0  0  0
  1  2  1  0
  2  3  1  0
  3  4  2  0
  3  5  1  0
  5  6  2  0
  6  7  1  0
  7  8  2  0
  8  9  1  0
  9 10  2  0
  2 11  1  0
 11 12  1  0
 12 13  1  0
 13 14  1  0
 14 15  2  0
 14 16  1  0
 16 17  1  0
 17 18  2  0
 18 19  1  0
 19 20  2  0
 20 21  1  0
 21 22  2  0
 11 23  1  0
 23 24  1  0
 24 25  1  0
 10  5  1  0
 22 17  1  0
 25 23  1  0
  1 26  1  0
  1 27  1  0
  1 28  1  0
  6 29  1  0
  7 30  1  0
  8 31  1  0
 10 32  1  0
 11 33  1  0
 12 34  1  0
 12 35  1  0
 13 36  1  0
 16 37  1  0
 16 38  1  0
 18 39  1  0
 20 40  1  0
 22 41  1  0
 23 42  1  0
 24 43  1  0
 24 44  1  0
 25 45  1  0
 25 46  1  0
M  END
>  <Energy>  (1286) 
1595.619478698517

>  <compound_id>  (1286) 
34639

>  <target_id>  (1286) 
1

>  <reference_id>  (1286) 
54

>  <inspiration_ids>  (1286) 
[82, 54]

>  <energy_score>  (1286) 
1505.5291596996767

>  <distance_score>  (1286) 
4.262350877534611

>  <path>  (1286) 
/opt/xchem-fragalysis-2/maxwin/BulkDock/SCRATCH/511022/C34639-P54/C34639-P54.minimised.mol

>  <scratch_subdir>  (1286) 
/opt/xchem-fragalysis-2/maxwin/BulkDock/SCRATCH/511022/C34639-P54

>  <fragmenstein_runtime>  (1286) 
9.64827847480774

>  <fragmenstein_outcome>  (1286) 
too moved

>  <fragmenstein_mode>  (1286) 
expansion

>  <fragmenstein_error>  (1286) 


$$$$
C69276-P82
     RDKit          3D

 41 42  0  0  0  0  0  0  0  0999 V2000
   -9.7286  -24.4140   32.5030 C   0  0  0  0  0  0  0  0  0  0  0  0
  -11.1298  -23.8591   32.7783 C   0  0  0  0  0  0  0  0  0  0  0  0
  -11.2954  -22.4031   32.1832 C   0  0  0  0  0  0  0  0  0  0  0  0
  -12.1527  -24.8133   32.2312 N   0  0  0  0  0  0  0  0  0  0  0  0
  -13.0653  -24.0539   33.2249 C   0  0  0  0  0  0  0  0  0  0  0  0
  -14.4752  -23.6484   32.8964 C   0  0  0  0  0  0  0  0  0  0  0  0
  -14.7595  -22.6799   31.9435 C   0  0  0  0  0  0  0  0  0  0  0  0
  -16.0615  -22.2056   31.8441 C   0  0  0  0  0  0  0  0  0  0  0  0
  -17.0349  -22.6987   32.7014 C   0  0  0  0  0  0  0  0  0  0  0  0
  -16.6666  -23.6497   33.6339 C   0  0  0  0  0  0  0  0  0  0  0  0
  -15.4114  -24.1082   33.7744 N   0  0  0  0  0  0  0  0  0  0  0  0
  -12.1146  -24.8059   30.8081 C   0  0  0  0  0  0  0  0  0  0  0  0
  -12.7188  -24.1426   30.0188 O   0  0  0  0  0  0  0  0  0  0  0  0
  -11.2020  -25.9260   30.2728 C   0  0  0  0  0  0  0  0  0  0  0  0
  -10.4231  -25.5513   29.0194 C   0  0  0  0  0  0  0  0  0  0  0  0
  -11.2818  -25.3531   27.8023 C   0  0  0  0  0  0  0  0  0  0  0  0
  -12.0379  -26.3963   27.3014 C   0  0  0  0  0  0  0  0  0  0  0  0
  -12.8684  -26.0962   26.2534 C   0  0  0  0  0  0  0  0  0  0  0  0
  -12.9675  -24.8717   25.7221 N   0  0  0  0  0  0  0  0  0  0  0  0
  -12.1811  -23.9307   26.2702 C   0  0  0  0  0  0  0  0  0  0  0  0
  -11.3013  -24.1189   27.2625 N   0  0  0  0  0  0  0  0  0  0  0  0
   -8.9766  -23.7570   32.9274 H   0  0  0  0  0  0  0  0  0  0  0  0
   -9.6053  -25.3986   32.9653 H   0  0  0  0  0  0  0  0  0  0  0  0
   -9.5044  -24.5102   31.4467 H   0  0  0  0  0  0  0  0  0  0  0  0
  -11.1065  -23.8746   33.8717 H   0  0  0  0  0  0  0  0  0  0  0  0
  -12.0951  -21.8241   32.6548 H   0  0  0  0  0  0  0  0  0  0  0  0
  -11.5221  -22.4057   31.1146 H   0  0  0  0  0  0  0  0  0  0  0  0
  -10.4271  -21.7699   32.2951 H   0  0  0  0  0  0  0  0  0  0  0  0
  -12.7454  -23.2131   33.8594 H   0  0  0  0  0  0  0  0  0  0  0  0
  -13.1866  -24.8537   33.9668 H   0  0  0  0  0  0  0  0  0  0  0  0
  -14.0002  -22.3394   31.2522 H   0  0  0  0  0  0  0  0  0  0  0  0
  -16.3283  -21.4946   31.0736 H   0  0  0  0  0  0  0  0  0  0  0  0
  -18.0652  -22.3740   32.6233 H   0  0  0  0  0  0  0  0  0  0  0  0
  -17.3956  -24.0797   34.3128 H   0  0  0  0  0  0  0  0  0  0  0  0
  -11.8490  -26.7697   30.0259 H   0  0  0  0  0  0  0  0  0  0  0  0
  -10.5261  -26.3065   31.0411 H   0  0  0  0  0  0  0  0  0  0  0  0
   -9.6870  -26.3278   28.7950 H   0  0  0  0  0  0  0  0  0  0  0  0
   -9.8603  -24.6428   29.2016 H   0  0  0  0  0  0  0  0  0  0  0  0
  -12.0083  -27.3891   27.7259 H   0  0  0  0  0  0  0  0  0  0  0  0
  -13.5069  -26.8503   25.8052 H   0  0  0  0  0  0  0  0  0  0  0  0
  -12.2600  -22.9319   25.8596 H   0  0  0  0  0  0  0  0  0  0  0  0
  1  2  1  0
  2  3  1  0
  2  4  1  0
  4  5  1  0
  5  6  1  0
  6  7  2  0
  7  8  1  0
  8  9  2  0
  9 10  1  0
 10 11  2  0
  4 12  1  0
 12 13  2  0
 12 14  1  0
 14 15  1  0
 15 16  1  0
 16 17  2  0
 17 18  1  0
 18 19  2  0
 19 20  1  0
 20 21  2  0
 11  6  1  0
 21 16  1  0
  1 22  1  0
  1 23  1  0
  1 24  1  0
  2 25  1  0
  3 26  1  0
  3 27  1  0
  3 28  1  0
  5 29  1  0
  5 30  1  0
  7 31  1  0
  8 32  1  0
  9 33  1  0
 10 34  1  0
 14 35  1  0
 14 36  1  0
 15 37  1  0
 15 38  1  0
 17 39  1  0
 18 40  1  0
 20 41  1  0
M  END
>  <Energy>  (1287) 
113.10373911175252

>  <compound_id>  (1287) 
69276

>  <target_id>  (1287) 
1

>  <reference_id>  (1287) 
82

>  <inspiration_ids>  (1287) 
[82, 54]

>  <energy_score>  (1287) 
65.79453333605767

>  <distance_score>  (1287) 
3.7663459184441197

>  <path>  (1287) 
/opt/xchem-fragalysis-2/maxwin/BulkDock/SCRATCH/511022/C69276-P82/C69276-P82.minimised.mol

>  <scratch_subdir>  (1287) 
/opt/xchem-fragalysis-2/maxwin/BulkDock/SCRATCH/511022/C69276-P82

>  <fragmenstein_runtime>  (1287) 
6.273171424865723

>  <fragmenstein_outcome>  (1287) 
too moved

>  <fragmenstein_mode>  (1287) 
expansion

>  <fragmenstein_error>  (1287) 


$$$$
C69276-P54
     RDKit          3D

 41 42  0  0  0  0  0  0  0  0999 V2000
  -10.5866  -23.0491   27.2873 C   0  0  0  0  0  0  0  0  0  0  0  0
  -10.6801  -23.1199   28.8187 C   0  0  0  0  0  0  0  0  0  0  0  0
  -12.0929  -22.7595   29.2925 C   0  0  0  0  0  0  0  0  0  0  0  0
  -10.1773  -24.5468   29.2610 N   0  0  0  0  0  0  0  0  0  0  0  0
   -9.2557  -23.7247   30.0992 C   0  0  0  0  0  0  0  0  0  0  0  0
   -9.5793  -23.3272   31.5295 C   0  0  0  0  0  0  0  0  0  0  0  0
  -10.1883  -22.1167   31.8517 C   0  0  0  0  0  0  0  0  0  0  0  0
  -10.2874  -21.7290   33.1812 C   0  0  0  0  0  0  0  0  0  0  0  0
   -9.7359  -22.5363   34.1577 C   0  0  0  0  0  0  0  0  0  0  0  0
   -9.1470  -23.7203   33.7654 C   0  0  0  0  0  0  0  0  0  0  0  0
   -9.0776  -24.1379   32.4911 N   0  0  0  0  0  0  0  0  0  0  0  0
  -11.2923  -25.3754   29.6292 C   0  0  0  0  0  0  0  0  0  0  0  0
  -11.8237  -25.5454   30.6982 O   0  0  0  0  0  0  0  0  0  0  0  0
  -11.7371  -26.2037   28.4247 C   0  0  0  0  0  0  0  0  0  0  0  0
  -13.2462  -26.3945   28.3165 C   0  0  0  0  0  0  0  0  0  0  0  0
  -13.9476  -25.4093   27.4136 C   0  0  0  0  0  0  0  0  0  0  0  0
  -15.3225  -25.4367   27.3211 C   0  0  0  0  0  0  0  0  0  0  0  0
  -15.8910  -24.5606   26.4261 C   0  0  0  0  0  0  0  0  0  0  0  0
  -15.1842  -23.7089   25.6600 N   0  0  0  0  0  0  0  0  0  0  0  0
  -13.8638  -23.7198   25.8644 C   0  0  0  0  0  0  0  0  0  0  0  0
  -13.2088  -24.5514   26.6836 N   0  0  0  0  0  0  0  0  0  0  0  0
   -9.5441  -22.8867   27.0138 H   0  0  0  0  0  0  0  0  0  0  0  0
  -10.8851  -23.9624   26.7803 H   0  0  0  0  0  0  0  0  0  0  0  0
  -11.1697  -22.2134   26.8887 H   0  0  0  0  0  0  0  0  0  0  0  0
  -10.0997  -22.2176   29.0780 H   0  0  0  0  0  0  0  0  0  0  0  0
  -12.3148  -21.7219   29.0243 H   0  0  0  0  0  0  0  0  0  0  0  0
  -12.8636  -23.3898   28.8589 H   0  0  0  0  0  0  0  0  0  0  0  0
  -12.1913  -22.8342   30.3724 H   0  0  0  0  0  0  0  0  0  0  0  0
   -8.5605  -23.0503   29.5710 H   0  0  0  0  0  0  0  0  0  0  0  0
   -8.5192  -24.5173   30.2771 H   0  0  0  0  0  0  0  0  0  0  0  0
  -10.5708  -21.4401   31.0993 H   0  0  0  0  0  0  0  0  0  0  0  0
  -10.7820  -20.7997   33.4511 H   0  0  0  0  0  0  0  0  0  0  0  0
   -9.7980  -22.2566   35.2009 H   0  0  0  0  0  0  0  0  0  0  0  0
   -8.7099  -24.4021   34.4815 H   0  0  0  0  0  0  0  0  0  0  0  0
  -11.2738  -25.8790   27.4919 H   0  0  0  0  0  0  0  0  0  0  0  0
  -11.2988  -27.1940   28.6189 H   0  0  0  0  0  0  0  0  0  0  0  0
  -13.4328  -27.3921   27.8976 H   0  0  0  0  0  0  0  0  0  0  0  0
  -13.7194  -26.3668   29.3048 H   0  0  0  0  0  0  0  0  0  0  0  0
  -15.9318  -26.1095   27.9101 H   0  0  0  0  0  0  0  0  0  0  0  0
  -16.9696  -24.5159   26.3002 H   0  0  0  0  0  0  0  0  0  0  0  0
  -13.2736  -22.9937   25.3151 H   0  0  0  0  0  0  0  0  0  0  0  0
  1  2  1  0
  2  3  1  0
  2  4  1  0
  4  5  1  0
  5  6  1  0
  6  7  2  0
  7  8  1  0
  8  9  2  0
  9 10  1  0
 10 11  2  0
  4 12  1  0
 12 13  2  0
 12 14  1  0
 14 15  1  0
 15 16  1  0
 16 17  2  0
 17 18  1  0
 18 19  2  0
 19 20  1  0
 20 21  2  0
 11  6  1  0
 21 16  1  0
  1 22  1  0
  1 23  1  0
  1 24  1  0
  2 25  1  0
  3 26  1  0
  3 27  1  0
  3 28  1  0
  5 29  1  0
  5 30  1  0
  7 31  1  0
  8 32  1  0
  9 33  1  0
 10 34  1  0
 14 35  1  0
 14 36  1  0
 15 37  1  0
 15 38  1  0
 17 39  1  0
 18 40  1  0
 20 41  1  0
M  END
>  <Energy>  (1288) 
108.76078176620852

>  <compound_id>  (1288) 
69276

>  <target_id>  (1288) 
1

>  <reference_id>  (1288) 
54

>  <inspiration_ids>  (1288) 
[82, 54]

>  <energy_score>  (1288) 
61.45157599051137

>  <distance_score>  (1288) 
3.918297832557667

>  <path>  (1288) 
/opt/xchem-fragalysis-2/maxwin/BulkDock/SCRATCH/511022/C69276-P54/C69276-P54.minimised.mol

>  <scratch_subdir>  (1288) 
/opt/xchem-fragalysis-2/maxwin/BulkDock/SCRATCH/511022/C69276-P54

>  <fragmenstein_runtime>  (1288) 
6.758655786514282

>  <fragmenstein_outcome>  (1288) 
too moved

>  <fragmenstein_mode>  (1288) 
expansion

>  <fragmenstein_error>  (1288) 


$$$$
C69278-P82
     RDKit          3D

 46 47  0  0  0  0  0  0  0  0999 V2000
  -17.6647  -21.6571   31.0141 C   0  0  0  0  0  0  0  0  0  0  0  0
  -16.4951  -22.5820   31.3173 C   0  0  0  0  0  0  0  0  0  0  0  0
  -15.1209  -22.1940   31.8486 N   0  0  0  0  0  0  0  0  0  0  0  0
  -15.9692  -21.4843   32.9019 C   0  0  0  0  0  0  0  0  0  0  0  0
  -14.9469  -20.8360   33.8896 C   0  0  0  0  0  0  0  0  0  0  0  0
  -13.8429  -21.7482   33.9071 N   0  0  0  0  0  0  0  0  0  0  0  0
  -12.4827  -21.5724   33.5518 C   0  0  0  0  0  0  0  0  0  0  0  0
  -11.8829  -20.5949   33.2226 O   0  0  0  0  0  0  0  0  0  0  0  0
  -11.7157  -22.8803   33.4938 C   0  0  0  0  0  0  0  0  0  0  0  0
  -10.6543  -22.9745   32.6393 C   0  0  0  0  0  0  0  0  0  0  0  0
   -9.8796  -24.1441   32.5561 C   0  0  0  0  0  0  0  0  0  0  0  0
  -10.0983  -25.2448   33.2679 N   0  0  0  0  0  0  0  0  0  0  0  0
  -11.1716  -25.1635   34.0408 C   0  0  0  0  0  0  0  0  0  0  0  0
  -11.9967  -24.0519   34.1303 C   0  0  0  0  0  0  0  0  0  0  0  0
  -14.2719  -23.3785   31.9516 C   0  0  0  0  0  0  0  0  0  0  0  0
  -14.1051  -24.1395   32.8710 O   0  0  0  0  0  0  0  0  0  0  0  0
  -13.3517  -23.6384   30.7163 C   0  0  0  0  0  0  0  0  0  0  0  0
  -12.0028  -24.3210   30.6113 C   0  0  0  0  0  0  0  0  0  0  0  0
  -11.6781  -25.2666   29.4495 C   0  0  0  0  0  0  0  0  0  0  0  0
  -12.0181  -24.8393   28.1243 N   0  0  0  0  0  0  0  0  0  0  0  0
  -12.5311  -25.6202   27.1374 C   0  0  0  0  0  0  0  0  0  0  0  0
  -12.7024  -24.9057   26.0538 N   0  0  0  0  0  0  0  0  0  0  0  0
  -12.2195  -23.6810   26.4269 C   0  0  0  0  0  0  0  0  0  0  0  0
  -11.7490  -23.6065   27.6749 N   0  0  0  0  0  0  0  0  0  0  0  0
  -18.2706  -22.0860   30.2087 H   0  0  0  0  0  0  0  0  0  0  0  0
  -17.2871  -20.6790   30.7313 H   0  0  0  0  0  0  0  0  0  0  0  0
  -18.3363  -21.5401   31.8726 H   0  0  0  0  0  0  0  0  0  0  0  0
  -16.2878  -22.9880   30.3426 H   0  0  0  0  0  0  0  0  0  0  0  0
  -16.8713  -23.4461   31.8899 H   0  0  0  0  0  0  0  0  0  0  0  0
  -16.5552  -22.1838   33.5196 H   0  0  0  0  0  0  0  0  0  0  0  0
  -16.5108  -20.5963   32.5659 H   0  0  0  0  0  0  0  0  0  0  0  0
  -15.4259  -20.7125   34.8596 H   0  0  0  0  0  0  0  0  0  0  0  0
  -14.6163  -19.8576   33.5483 H   0  0  0  0  0  0  0  0  0  0  0  0
  -14.0219  -22.7379   34.0500 H   0  0  0  0  0  0  0  0  0  0  0  0
  -10.4841  -22.0628   32.0909 H   0  0  0  0  0  0  0  0  0  0  0  0
   -9.0774  -24.2764   31.8628 H   0  0  0  0  0  0  0  0  0  0  0  0
  -11.3191  -26.0065   34.6850 H   0  0  0  0  0  0  0  0  0  0  0  0
  -12.9203  -24.1346   34.6543 H   0  0  0  0  0  0  0  0  0  0  0  0
  -13.2680  -22.7009   30.1621 H   0  0  0  0  0  0  0  0  0  0  0  0
  -13.8265  -24.4774   30.2777 H   0  0  0  0  0  0  0  0  0  0  0  0
  -11.8828  -24.9429   31.4893 H   0  0  0  0  0  0  0  0  0  0  0  0
  -11.2707  -23.5273   30.4998 H   0  0  0  0  0  0  0  0  0  0  0  0
  -10.5964  -25.4557   29.4415 H   0  0  0  0  0  0  0  0  0  0  0  0
  -12.1428  -26.2396   29.6190 H   0  0  0  0  0  0  0  0  0  0  0  0
  -12.7522  -26.6697   27.2594 H   0  0  0  0  0  0  0  0  0  0  0  0
  -12.2111  -22.8283   25.7620 H   0  0  0  0  0  0  0  0  0  0  0  0
  1  2  1  0
  2  3  1  0
  3  4  1  0
  4  5  1  0
  5  6  1  0
  6  7  1  0
  7  8  2  0
  7  9  1  0
  9 10  2  0
 10 11  1  0
 11 12  2  0
 12 13  1  0
 13 14  2  0
  3 15  1  0
 15 16  2  0
 15 17  1  0
 17 18  1  0
 18 19  1  0
 19 20  1  0
 20 21  1  0
 21 22  2  0
 22 23  1  0
 23 24  2  0
 14  9  1  0
 24 20  1  0
  1 25  1  0
  1 26  1  0
  1 27  1  0
  2 28  1  0
  2 29  1  0
  4 30  1  0
  4 31  1  0
  5 32  1  0
  5 33  1  0
  6 34  1  0
 10 35  1  0
 11 36  1  0
 13 37  1  0
 14 38  1  0
 17 39  1  0
 17 40  1  0
 18 41  1  0
 18 42  1  0
 19 43  1  0
 19 44  1  0
 21 45  1  0
 23 46  1  0
M  END
>  <Energy>  (1289) 
159.19908812873484

>  <compound_id>  (1289) 
69278

>  <target_id>  (1289) 
1

>  <reference_id>  (1289) 
82

>  <inspiration_ids>  (1289) 
[82, 54]

>  <energy_score>  (1289) 
138.87481879225203

>  <distance_score>  (1289) 
3.0446525725237086

>  <path>  (1289) 
/opt/xchem-fragalysis-2/maxwin/BulkDock/SCRATCH/511022/C69278-P82/C69278-P82.minimised.mol

>  <scratch_subdir>  (1289) 
/opt/xchem-fragalysis-2/maxwin/BulkDock/SCRATCH/511022/C69278-P82

>  <fragmenstein_runtime>  (1289) 
10.659300088882446

>  <fragmenstein_outcome>  (1289) 
too moved

>  <fragmenstein_mode>  (1289) 
expansion

>  <fragmenstein_error>  (1289) 


$$$$
C69278-P54
     RDKit          3D

 46 47  0  0  0  0  0  0  0  0999 V2000
  -14.5500  -31.8684   27.3434 C   0  0  0  0  0  0  0  0  0  0  0  0
  -15.4223  -31.1043   28.3586 C   0  0  0  0  0  0  0  0  0  0  0  0
  -15.0240  -29.7041   28.8265 N   0  0  0  0  0  0  0  0  0  0  0  0
  -14.0223  -30.4973   29.6479 C   0  0  0  0  0  0  0  0  0  0  0  0
  -13.5277  -29.5663   30.7938 C   0  0  0  0  0  0  0  0  0  0  0  0
  -12.9780  -28.3018   30.3628 N   0  0  0  0  0  0  0  0  0  0  0  0
  -11.8647  -28.0031   29.5241 C   0  0  0  0  0  0  0  0  0  0  0  0
  -11.1451  -28.7207   28.8970 O   0  0  0  0  0  0  0  0  0  0  0  0
  -11.5502  -26.5471   29.4940 C   0  0  0  0  0  0  0  0  0  0  0  0
  -11.2851  -25.9327   28.2765 C   0  0  0  0  0  0  0  0  0  0  0  0
  -10.8927  -24.6081   28.2990 C   0  0  0  0  0  0  0  0  0  0  0  0
  -10.7314  -23.8919   29.4329 N   0  0  0  0  0  0  0  0  0  0  0  0
  -10.9711  -24.5176   30.5984 C   0  0  0  0  0  0  0  0  0  0  0  0
  -11.3943  -25.8317   30.6830 C   0  0  0  0  0  0  0  0  0  0  0  0
  -14.8344  -28.8477   27.7005 C   0  0  0  0  0  0  0  0  0  0  0  0
  -13.8471  -28.6069   27.0591 O   0  0  0  0  0  0  0  0  0  0  0  0
  -16.1385  -28.1082   27.4249 C   0  0  0  0  0  0  0  0  0  0  0  0
  -15.8975  -26.8263   26.6287 C   0  0  0  0  0  0  0  0  0  0  0  0
  -15.1027  -25.7843   27.4246 C   0  0  0  0  0  0  0  0  0  0  0  0
  -14.7462  -24.6448   26.6149 N   0  0  0  0  0  0  0  0  0  0  0  0
  -15.5963  -23.7874   26.0003 C   0  0  0  0  0  0  0  0  0  0  0  0
  -14.9057  -22.9192   25.3055 N   0  0  0  0  0  0  0  0  0  0  0  0
  -13.6126  -23.2362   25.6078 C   0  0  0  0  0  0  0  0  0  0  0  0
  -13.4636  -24.3241   26.3724 N   0  0  0  0  0  0  0  0  0  0  0  0
  -14.2130  -31.2240   26.5270 H   0  0  0  0  0  0  0  0  0  0  0  0
  -13.6723  -32.3303   27.8041 H   0  0  0  0  0  0  0  0  0  0  0  0
  -15.1372  -32.6814   26.9021 H   0  0  0  0  0  0  0  0  0  0  0  0
  -15.8490  -31.7457   29.1482 H   0  0  0  0  0  0  0  0  0  0  0  0
  -16.3353  -30.8917   27.7784 H   0  0  0  0  0  0  0  0  0  0  0  0
  -14.3778  -31.3767   30.2065 H   0  0  0  0  0  0  0  0  0  0  0  0
  -13.1320  -30.7144   29.0433 H   0  0  0  0  0  0  0  0  0  0  0  0
  -12.7511  -30.0832   31.3628 H   0  0  0  0  0  0  0  0  0  0  0  0
  -14.3571  -29.3369   31.4716 H   0  0  0  0  0  0  0  0  0  0  0  0
  -13.4025  -27.4367   30.6667 H   0  0  0  0  0  0  0  0  0  0  0  0
  -11.3785  -26.4690   27.3381 H   0  0  0  0  0  0  0  0  0  0  0  0
  -10.6900  -24.0691   27.3771 H   0  0  0  0  0  0  0  0  0  0  0  0
  -10.7967  -23.9101   31.4814 H   0  0  0  0  0  0  0  0  0  0  0  0
  -11.5255  -26.3058   31.6468 H   0  0  0  0  0  0  0  0  0  0  0  0
  -16.7877  -28.7731   26.8448 H   0  0  0  0  0  0  0  0  0  0  0  0
  -16.6422  -27.8713   28.3690 H   0  0  0  0  0  0  0  0  0  0  0  0
  -16.8692  -26.4058   26.3415 H   0  0  0  0  0  0  0  0  0  0  0  0
  -15.3733  -27.0573   25.6936 H   0  0  0  0  0  0  0  0  0  0  0  0
  -15.6947  -25.4095   28.2673 H   0  0  0  0  0  0  0  0  0  0  0  0
  -14.1796  -26.2011   27.8332 H   0  0  0  0  0  0  0  0  0  0  0  0
  -16.6732  -23.8345   26.0835 H   0  0  0  0  0  0  0  0  0  0  0  0
  -12.7674  -22.6581   25.2534 H   0  0  0  0  0  0  0  0  0  0  0  0
  1  2  1  0
  2  3  1  0
  3  4  1  0
  4  5  1  0
  5  6  1  0
  6  7  1  0
  7  8  2  0
  7  9  1  0
  9 10  2  0
 10 11  1  0
 11 12  2  0
 12 13  1  0
 13 14  2  0
  3 15  1  0
 15 16  2  0
 15 17  1  0
 17 18  1  0
 18 19  1  0
 19 20  1  0
 20 21  1  0
 21 22  2  0
 22 23  1  0
 23 24  2  0
 14  9  1  0
 24 20  1  0
  1 25  1  0
  1 26  1  0
  1 27  1  0
  2 28  1  0
  2 29  1  0
  4 30  1  0
  4 31  1  0
  5 32  1  0
  5 33  1  0
  6 34  1  0
 10 35  1  0
 11 36  1  0
 13 37  1  0
 14 38  1  0
 17 39  1  0
 17 40  1  0
 18 41  1  0
 18 42  1  0
 19 43  1  0
 19 44  1  0
 21 45  1  0
 23 46  1  0
M  END
>  <Energy>  (1290) 
79.025020384499825

>  <compound_id>  (1290) 
69278

>  <target_id>  (1290) 
1

>  <reference_id>  (1290) 
54

>  <inspiration_ids>  (1290) 
[82, 54]

>  <energy_score>  (1290) 
58.70075104801356

>  <distance_score>  (1290) 
4.17801743981053

>  <path>  (1290) 
/opt/xchem-fragalysis-2/maxwin/BulkDock/SCRATCH/511022/C69278-P54/C69278-P54.minimised.mol

>  <scratch_subdir>  (1290) 
/opt/xchem-fragalysis-2/maxwin/BulkDock/SCRATCH/511022/C69278-P54

>  <fragmenstein_runtime>  (1290) 
8.251183986663818

>  <fragmenstein_outcome>  (1290) 
too moved

>  <fragmenstein_mode>  (1290) 
expansion

>  <fragmenstein_error>  (1290) 


$$$$
C34640-P82
     RDKit          3D

 41 42  0  0  0  0  0  0  0  0999 V2000
  -16.5287  -21.2681   33.2084 C   0  0  0  0  0  0  0  0  0  0  0  0
  -16.1924  -22.3891   32.2399 C   0  0  0  0  0  0  0  0  0  0  0  0
  -14.9821  -22.0993   31.5422 O   0  0  0  0  0  0  0  0  0  0  0  0
  -13.7963  -22.4398   32.1210 C   0  0  0  0  0  0  0  0  0  0  0  0
  -13.6172  -23.1423   33.2941 C   0  0  0  0  0  0  0  0  0  0  0  0
  -12.3301  -23.4863   33.6469 C   0  0  0  0  0  0  0  0  0  0  0  0
  -11.2965  -22.9850   32.8962 C   0  0  0  0  0  0  0  0  0  0  0  0
  -11.4235  -22.2105   31.8252 N   0  0  0  0  0  0  0  0  0  0  0  0
  -12.6561  -22.1522   31.3614 C   0  0  0  0  0  0  0  0  0  0  0  0
  -12.7736  -22.5932   30.0742 N   0  0  0  0  0  0  0  0  0  0  0  0
  -11.7945  -22.5009   28.8997 C   0  0  0  0  0  0  0  0  0  0  0  0
  -10.7935  -21.9820   28.8215 O   0  0  0  0  0  0  0  0  0  0  0  0
  -12.5209  -23.3989   27.9031 N   0  0  0  0  0  0  0  0  0  0  0  0
  -12.1030  -23.9037   26.6519 C   0  0  0  0  0  0  0  0  0  0  0  0
  -11.1550  -25.0610   26.9737 C   0  0  0  0  0  0  0  0  0  0  0  0
  -11.5692  -25.8944   28.2187 C   0  0  0  0  0  0  0  0  0  0  0  0
  -10.9820  -25.5337   29.5634 C   0  0  0  0  0  0  0  0  0  0  0  0
  -11.6854  -25.4522   30.7366 C   0  0  0  0  0  0  0  0  0  0  0  0
  -11.1677  -25.5191   31.9788 N   0  0  0  0  0  0  0  0  0  0  0  0
   -9.8517  -25.4716   32.0344 C   0  0  0  0  0  0  0  0  0  0  0  0
   -9.0810  -25.3086   30.9801 N   0  0  0  0  0  0  0  0  0  0  0  0
   -9.6537  -25.3957   29.7705 C   0  0  0  0  0  0  0  0  0  0  0  0
  -15.7701  -21.1784   33.9917 H   0  0  0  0  0  0  0  0  0  0  0  0
  -16.5609  -20.3062   32.6855 H   0  0  0  0  0  0  0  0  0  0  0  0
  -17.4985  -21.4443   33.6821 H   0  0  0  0  0  0  0  0  0  0  0  0
  -16.9809  -22.4365   31.4800 H   0  0  0  0  0  0  0  0  0  0  0  0
  -16.1851  -23.3689   32.7268 H   0  0  0  0  0  0  0  0  0  0  0  0
  -14.4362  -23.5115   33.8962 H   0  0  0  0  0  0  0  0  0  0  0  0
  -12.1114  -24.1541   34.4601 H   0  0  0  0  0  0  0  0  0  0  0  0
  -10.2800  -23.2871   33.0794 H   0  0  0  0  0  0  0  0  0  0  0  0
  -13.6106  -23.0636   29.7799 H   0  0  0  0  0  0  0  0  0  0  0  0
  -13.3550  -23.7592   28.3219 H   0  0  0  0  0  0  0  0  0  0  0  0
  -11.6276  -23.1264   26.0685 H   0  0  0  0  0  0  0  0  0  0  0  0
  -12.9886  -24.2635   26.1199 H   0  0  0  0  0  0  0  0  0  0  0  0
  -10.1544  -24.6513   27.1171 H   0  0  0  0  0  0  0  0  0  0  0  0
  -11.1235  -25.7173   26.0970 H   0  0  0  0  0  0  0  0  0  0  0  0
  -11.2697  -26.9307   28.0301 H   0  0  0  0  0  0  0  0  0  0  0  0
  -12.6613  -25.9354   28.2808 H   0  0  0  0  0  0  0  0  0  0  0  0
  -12.7553  -25.3528   30.7126 H   0  0  0  0  0  0  0  0  0  0  0  0
   -9.3711  -25.5359   32.9994 H   0  0  0  0  0  0  0  0  0  0  0  0
   -8.9633  -25.3882   28.9397 H   0  0  0  0  0  0  0  0  0  0  0  0
  1  2  1  0
  2  3  1  0
  3  4  1  0
  4  5  2  0
  5  6  1  0
  6  7  2  0
  7  8  1  0
  8  9  2  0
  9 10  1  0
 10 11  1  0
 11 12  2  0
 11 13  1  0
 13 14  1  0
 14 15  1  0
 15 16  1  0
 16 17  1  0
 17 18  2  0
 18 19  1  0
 19 20  2  0
 20 21  1  0
 21 22  2  0
  9  4  1  0
 22 17  1  0
  1 23  1  0
  1 24  1  0
  1 25  1  0
  2 26  1  0
  2 27  1  0
  5 28  1  0
  6 29  1  0
  7 30  1  0
 10 31  1  0
 13 32  1  0
 14 33  1  0
 14 34  1  0
 15 35  1  0
 15 36  1  0
 16 37  1  0
 16 38  1  0
 18 39  1  0
 20 40  1  0
 22 41  1  0
M  END
>  <Energy>  (1291) 
26.632703862987309

>  <compound_id>  (1291) 
34640

>  <target_id>  (1291) 
1

>  <reference_id>  (1291) 
82

>  <inspiration_ids>  (1291) 
[82, 54]

>  <energy_score>  (1291) 
32.70935039567932

>  <distance_score>  (1291) 
3.286392370193807

>  <path>  (1291) 
/opt/xchem-fragalysis-2/maxwin/BulkDock/SCRATCH/511022/C34640-P82/C34640-P82.minimised.mol

>  <scratch_subdir>  (1291) 
/opt/xchem-fragalysis-2/maxwin/BulkDock/SCRATCH/511022/C34640-P82

>  <fragmenstein_runtime>  (1291) 
10.325767278671265

>  <fragmenstein_outcome>  (1291) 
too moved

>  <fragmenstein_mode>  (1291) 
expansion

>  <fragmenstein_error>  (1291) 


$$$$
C34640-P54
     RDKit          3D

 41 42  0  0  0  0  0  0  0  0999 V2000
  -12.3742  -19.7924   32.5710 C   0  0  0  0  0  0  0  0  0  0  0  0
  -11.6235  -20.5257   31.4713 C   0  0  0  0  0  0  0  0  0  0  0  0
  -11.8510  -21.9343   31.4555 O   0  0  0  0  0  0  0  0  0  0  0  0
  -10.9440  -22.7253   32.0987 C   0  0  0  0  0  0  0  0  0  0  0  0
  -10.1735  -22.2716   33.1719 C   0  0  0  0  0  0  0  0  0  0  0  0
   -9.2058  -23.0849   33.7569 C   0  0  0  0  0  0  0  0  0  0  0  0
   -9.0465  -24.3643   33.2869 C   0  0  0  0  0  0  0  0  0  0  0  0
   -9.8239  -24.8729   32.3275 N   0  0  0  0  0  0  0  0  0  0  0  0
  -10.7508  -24.0622   31.7400 C   0  0  0  0  0  0  0  0  0  0  0  0
  -11.3493  -24.8125   30.7553 N   0  0  0  0  0  0  0  0  0  0  0  0
  -12.3451  -24.4015   29.6512 C   0  0  0  0  0  0  0  0  0  0  0  0
  -12.8589  -23.4060   29.4579 O   0  0  0  0  0  0  0  0  0  0  0  0
  -12.3581  -25.7037   28.8312 N   0  0  0  0  0  0  0  0  0  0  0  0
  -12.9328  -25.9864   27.5719 C   0  0  0  0  0  0  0  0  0  0  0  0
  -11.8129  -25.6798   26.5636 C   0  0  0  0  0  0  0  0  0  0  0  0
  -11.2278  -24.2300   26.5936 C   0  0  0  0  0  0  0  0  0  0  0  0
  -10.3497  -23.7971   27.7463 C   0  0  0  0  0  0  0  0  0  0  0  0
   -9.3656  -24.5712   28.3108 C   0  0  0  0  0  0  0  0  0  0  0  0
   -8.6163  -24.2229   29.3645 N   0  0  0  0  0  0  0  0  0  0  0  0
   -8.8822  -23.0299   29.8652 C   0  0  0  0  0  0  0  0  0  0  0  0
   -9.7799  -22.1636   29.3837 N   0  0  0  0  0  0  0  0  0  0  0  0
  -10.4740  -22.5517   28.3138 C   0  0  0  0  0  0  0  0  0  0  0  0
  -13.4140  -19.6242   32.2781 H   0  0  0  0  0  0  0  0  0  0  0  0
  -12.3789  -20.3418   33.5159 H   0  0  0  0  0  0  0  0  0  0  0  0
  -11.9246  -18.8103   32.7449 H   0  0  0  0  0  0  0  0  0  0  0  0
  -11.9410  -20.1371   30.4980 H   0  0  0  0  0  0  0  0  0  0  0  0
  -10.5649  -20.2978   31.5525 H   0  0  0  0  0  0  0  0  0  0  0  0
  -10.2876  -21.2678   33.5667 H   0  0  0  0  0  0  0  0  0  0  0  0
   -8.5683  -22.6953   34.5394 H   0  0  0  0  0  0  0  0  0  0  0  0
   -8.2799  -25.0264   33.6743 H   0  0  0  0  0  0  0  0  0  0  0  0
  -11.0281  -25.7406   30.5885 H   0  0  0  0  0  0  0  0  0  0  0  0
  -11.7299  -26.3690   29.2446 H   0  0  0  0  0  0  0  0  0  0  0  0
  -13.7951  -25.3340   27.4090 H   0  0  0  0  0  0  0  0  0  0  0  0
  -13.2330  -27.0363   27.5329 H   0  0  0  0  0  0  0  0  0  0  0  0
  -10.9958  -26.4016   26.6874 H   0  0  0  0  0  0  0  0  0  0  0  0
  -12.2469  -25.8694   25.5853 H   0  0  0  0  0  0  0  0  0  0  0  0
  -10.6091  -24.0953   25.7007 H   0  0  0  0  0  0  0  0  0  0  0  0
  -12.0684  -23.5310   26.4929 H   0  0  0  0  0  0  0  0  0  0  0  0
   -9.1251  -25.5334   27.8723 H   0  0  0  0  0  0  0  0  0  0  0  0
   -8.3271  -22.7398   30.7479 H   0  0  0  0  0  0  0  0  0  0  0  0
  -11.1992  -21.8282   27.9478 H   0  0  0  0  0  0  0  0  0  0  0  0
  1  2  1  0
  2  3  1  0
  3  4  1  0
  4  5  2  0
  5  6  1  0
  6  7  2  0
  7  8  1  0
  8  9  2  0
  9 10  1  0
 10 11  1  0
 11 12  2  0
 11 13  1  0
 13 14  1  0
 14 15  1  0
 15 16  1  0
 16 17  1  0
 17 18  2  0
 18 19  1  0
 19 20  2  0
 20 21  1  0
 21 22  2  0
  9  4  1  0
 22 17  1  0
  1 23  1  0
  1 24  1  0
  1 25  1  0
  2 26  1  0
  2 27  1  0
  5 28  1  0
  6 29  1  0
  7 30  1  0
 10 31  1  0
 13 32  1  0
 14 33  1  0
 14 34  1  0
 15 35  1  0
 15 36  1  0
 16 37  1  0
 16 38  1  0
 18 39  1  0
 20 40  1  0
 22 41  1  0
M  END
>  <Energy>  (1292) 
-1.2970635248558366

>  <compound_id>  (1292) 
34640

>  <target_id>  (1292) 
1

>  <reference_id>  (1292) 
54

>  <inspiration_ids>  (1292) 
[82, 54]

>  <energy_score>  (1292) 
4.779583007834312

>  <distance_score>  (1292) 
3.4161231545683917

>  <path>  (1292) 
/opt/xchem-fragalysis-2/maxwin/BulkDock/SCRATCH/511022/C34640-P54/C34640-P54.minimised.mol

>  <scratch_subdir>  (1292) 
/opt/xchem-fragalysis-2/maxwin/BulkDock/SCRATCH/511022/C34640-P54

>  <fragmenstein_runtime>  (1292) 
4.6605377197265625

>  <fragmenstein_outcome>  (1292) 
too moved

>  <fragmenstein_mode>  (1292) 
expansion

>  <fragmenstein_error>  (1292) 


$$$$
C30987-P82
     RDKit          3D

 41 42  0  0  0  0  0  0  0  0999 V2000
  -11.9617  -22.5466   26.5297 C   0  0  0  0  0  0  0  0  0  0  0  0
  -12.1034  -23.7277   25.5571 C   0  0  0  0  0  0  0  0  0  0  0  0
  -13.5184  -23.7822   24.9807 C   0  0  0  0  0  0  0  0  0  0  0  0
  -11.8537  -24.9298   26.3952 C   0  0  0  0  0  0  0  0  0  0  0  0
  -11.8316  -26.2216   25.9310 C   0  0  0  0  0  0  0  0  0  0  0  0
  -11.8602  -27.2420   26.8633 C   0  0  0  0  0  0  0  0  0  0  0  0
  -11.9901  -26.9286   28.2050 C   0  0  0  0  0  0  0  0  0  0  0  0
  -12.0674  -25.6049   28.5443 C   0  0  0  0  0  0  0  0  0  0  0  0
  -12.5189  -25.1791   29.7475 N   0  0  0  0  0  0  0  0  0  0  0  0
  -12.4964  -23.7722   30.3834 C   0  0  0  0  0  0  0  0  0  0  0  0
  -12.1642  -22.7740   29.9500 O   0  0  0  0  0  0  0  0  0  0  0  0
  -12.9579  -24.1349   31.8041 N   0  0  0  0  0  0  0  0  0  0  0  0
  -13.0054  -23.3580   32.9699 C   0  0  0  0  0  0  0  0  0  0  0  0
  -11.6743  -23.6749   33.6561 C   0  0  0  0  0  0  0  0  0  0  0  0
  -10.4824  -23.7923   32.6846 C   0  0  0  0  0  0  0  0  0  0  0  0
  -10.3237  -25.0468   31.9978 N   0  0  0  0  0  0  0  0  0  0  0  0
   -9.8572  -25.2580   30.7521 C   0  0  0  0  0  0  0  0  0  0  0  0
   -9.8879  -26.5223   30.4426 N   0  0  0  0  0  0  0  0  0  0  0  0
  -10.3948  -27.0516   31.5574 C   0  0  0  0  0  0  0  0  0  0  0  0
  -10.7499  -26.1934   32.5204 N   0  0  0  0  0  0  0  0  0  0  0  0
  -11.8472  -24.6523   27.6918 N   0  0  0  0  0  0  0  0  0  0  0  0
  -11.0644  -22.5863   27.1536 H   0  0  0  0  0  0  0  0  0  0  0  0
  -12.7733  -22.5381   27.2612 H   0  0  0  0  0  0  0  0  0  0  0  0
  -11.9254  -21.6049   25.9965 H   0  0  0  0  0  0  0  0  0  0  0  0
  -11.3622  -23.6858   24.7552 H   0  0  0  0  0  0  0  0  0  0  0  0
  -13.6835  -22.9790   24.2571 H   0  0  0  0  0  0  0  0  0  0  0  0
  -14.2491  -23.7054   25.7756 H   0  0  0  0  0  0  0  0  0  0  0  0
  -13.7760  -24.7315   24.5077 H   0  0  0  0  0  0  0  0  0  0  0  0
  -11.8461  -26.4495   24.8780 H   0  0  0  0  0  0  0  0  0  0  0  0
  -11.8387  -28.2790   26.5406 H   0  0  0  0  0  0  0  0  0  0  0  0
  -12.0508  -27.7090   28.9462 H   0  0  0  0  0  0  0  0  0  0  0  0
  -12.7934  -25.8500   30.4292 H   0  0  0  0  0  0  0  0  0  0  0  0
  -13.1022  -25.1292   31.8692 H   0  0  0  0  0  0  0  0  0  0  0  0
  -13.0665  -22.3004   32.6971 H   0  0  0  0  0  0  0  0  0  0  0  0
  -13.8633  -23.6448   33.5823 H   0  0  0  0  0  0  0  0  0  0  0  0
  -11.5650  -22.8596   34.3603 H   0  0  0  0  0  0  0  0  0  0  0  0
  -11.7644  -24.6013   34.2254 H   0  0  0  0  0  0  0  0  0  0  0  0
  -10.6265  -22.9993   31.9666 H   0  0  0  0  0  0  0  0  0  0  0  0
   -9.5024  -23.6439   33.1251 H   0  0  0  0  0  0  0  0  0  0  0  0
   -9.6106  -24.5014   30.0484 H   0  0  0  0  0  0  0  0  0  0  0  0
  -10.5248  -28.1181   31.6699 H   0  0  0  0  0  0  0  0  0  0  0  0
  1  2  1  0
  2  3  1  0
  2  4  1  0
  4  5  2  0
  5  6  1  0
  6  7  2  0
  7  8  1  0
  8  9  1  0
  9 10  1  0
 10 11  2  0
 10 12  1  0
 12 13  1  0
 13 14  1  0
 14 15  1  0
 15 16  1  0
 16 17  1  0
 17 18  2  0
 18 19  1  0
 19 20  2  0
  8 21  2  0
 21  4  1  0
 20 16  1  0
  1 22  1  0
  1 23  1  0
  1 24  1  0
  2 25  1  0
  3 26  1  0
  3 27  1  0
  3 28  1  0
  5 29  1  0
  6 30  1  0
  7 31  1  0
  9 32  1  0
 12 33  1  0
 13 34  1  0
 13 35  1  0
 14 36  1  0
 14 37  1  0
 15 38  1  0
 15 39  1  0
 17 40  1  0
 19 41  1  0
M  END
>  <Energy>  (1293) 
-9.7233273960595916

>  <compound_id>  (1293) 
30987

>  <target_id>  (1293) 
1

>  <reference_id>  (1293) 
82

>  <inspiration_ids>  (1293) 
[82, 54]

>  <energy_score>  (1293) 
38.214428555036136

>  <distance_score>  (1293) 
3.0045117223212774

>  <path>  (1293) 
/opt/xchem-fragalysis-2/maxwin/BulkDock/SCRATCH/511022/C30987-P82/C30987-P82.minimised.mol

>  <scratch_subdir>  (1293) 
/opt/xchem-fragalysis-2/maxwin/BulkDock/SCRATCH/511022/C30987-P82

>  <fragmenstein_runtime>  (1293) 
10.225397825241089

>  <fragmenstein_outcome>  (1293) 
too moved

>  <fragmenstein_mode>  (1293) 
expansion

>  <fragmenstein_error>  (1293) 


$$$$
C30987-P54
     RDKit          3D

 41 42  0  0  0  0  0  0  0  0999 V2000
  -12.1682  -22.1820   24.4181 C   0  0  0  0  0  0  0  0  0  0  0  0
  -12.6120  -22.6196   25.8076 C   0  0  0  0  0  0  0  0  0  0  0  0
  -11.6552  -22.0526   26.8791 C   0  0  0  0  0  0  0  0  0  0  0  0
  -12.7727  -24.0951   26.0713 C   0  0  0  0  0  0  0  0  0  0  0  0
  -14.0229  -24.7000   26.1370 C   0  0  0  0  0  0  0  0  0  0  0  0
  -14.1289  -25.9188   26.7994 C   0  0  0  0  0  0  0  0  0  0  0  0
  -13.0398  -26.3589   27.5408 C   0  0  0  0  0  0  0  0  0  0  0  0
  -11.8885  -25.5926   27.4820 C   0  0  0  0  0  0  0  0  0  0  0  0
  -11.4414  -25.0968   28.6862 N   0  0  0  0  0  0  0  0  0  0  0  0
  -10.2836  -24.2322   29.0047 C   0  0  0  0  0  0  0  0  0  0  0  0
   -9.4267  -23.8302   28.3163 O   0  0  0  0  0  0  0  0  0  0  0  0
  -10.5785  -23.9506   30.4059 N   0  0  0  0  0  0  0  0  0  0  0  0
   -9.8705  -23.1927   31.3653 C   0  0  0  0  0  0  0  0  0  0  0  0
   -8.9851  -24.2201   32.0255 C   0  0  0  0  0  0  0  0  0  0  0  0
   -9.7013  -25.2129   32.9267 C   0  0  0  0  0  0  0  0  0  0  0  0
  -10.7440  -26.1630   32.4818 N   0  0  0  0  0  0  0  0  0  0  0  0
  -11.0887  -27.3400   33.1186 C   0  0  0  0  0  0  0  0  0  0  0  0
  -12.1092  -27.9158   32.5419 N   0  0  0  0  0  0  0  0  0  0  0  0
  -12.3673  -27.0988   31.5014 C   0  0  0  0  0  0  0  0  0  0  0  0
  -11.6165  -25.9933   31.4400 N   0  0  0  0  0  0  0  0  0  0  0  0
  -11.6719  -24.7231   26.5056 N   0  0  0  0  0  0  0  0  0  0  0  0
  -12.1612  -21.0923   24.3194 H   0  0  0  0  0  0  0  0  0  0  0  0
  -11.1533  -22.5185   24.1936 H   0  0  0  0  0  0  0  0  0  0  0  0
  -12.8584  -22.5547   23.6587 H   0  0  0  0  0  0  0  0  0  0  0  0
  -13.6190  -22.2286   25.9416 H   0  0  0  0  0  0  0  0  0  0  0  0
  -10.6531  -22.4693   26.7534 H   0  0  0  0  0  0  0  0  0  0  0  0
  -11.5222  -20.9727   26.8347 H   0  0  0  0  0  0  0  0  0  0  0  0
  -12.0014  -22.2861   27.8911 H   0  0  0  0  0  0  0  0  0  0  0  0
  -14.9121  -24.1957   25.7785 H   0  0  0  0  0  0  0  0  0  0  0  0
  -15.0890  -26.4205   26.8768 H   0  0  0  0  0  0  0  0  0  0  0  0
  -13.1606  -27.1475   28.2718 H   0  0  0  0  0  0  0  0  0  0  0  0
  -11.9318  -25.3154   29.5281 H   0  0  0  0  0  0  0  0  0  0  0  0
  -11.3417  -24.5309   30.7065 H   0  0  0  0  0  0  0  0  0  0  0  0
   -9.2749  -22.4380   30.8536 H   0  0  0  0  0  0  0  0  0  0  0  0
  -10.5718  -22.7220   32.0583 H   0  0  0  0  0  0  0  0  0  0  0  0
   -8.2360  -23.6950   32.6297 H   0  0  0  0  0  0  0  0  0  0  0  0
   -8.4837  -24.7852   31.2455 H   0  0  0  0  0  0  0  0  0  0  0  0
  -10.1048  -24.5791   33.7130 H   0  0  0  0  0  0  0  0  0  0  0  0
   -8.9416  -25.8216   33.4296 H   0  0  0  0  0  0  0  0  0  0  0  0
  -10.5355  -27.7313   33.9534 H   0  0  0  0  0  0  0  0  0  0  0  0
  -13.1475  -27.3000   30.7780 H   0  0  0  0  0  0  0  0  0  0  0  0
  1  2  1  0
  2  3  1  0
  2  4  1  0
  4  5  2  0
  5  6  1  0
  6  7  2  0
  7  8  1  0
  8  9  1  0
  9 10  1  0
 10 11  2  0
 10 12  1  0
 12 13  1  0
 13 14  1  0
 14 15  1  0
 15 16  1  0
 16 17  1  0
 17 18  2  0
 18 19  1  0
 19 20  2  0
  8 21  2  0
 21  4  1  0
 20 16  1  0
  1 22  1  0
  1 23  1  0
  1 24  1  0
  2 25  1  0
  3 26  1  0
  3 27  1  0
  3 28  1  0
  5 29  1  0
  6 30  1  0
  7 31  1  0
  9 32  1  0
 12 33  1  0
 13 34  1  0
 13 35  1  0
 14 36  1  0
 14 37  1  0
 15 38  1  0
 15 39  1  0
 17 40  1  0
 19 41  1  0
M  END
>  <Energy>  (1294) 
-5.4421856433702533

>  <compound_id>  (1294) 
30987

>  <target_id>  (1294) 
1

>  <reference_id>  (1294) 
54

>  <inspiration_ids>  (1294) 
[82, 54]

>  <energy_score>  (1294) 
20.38586262305455

>  <distance_score>  (1294) 
3.248396318123106

>  <path>  (1294) 
/opt/xchem-fragalysis-2/maxwin/BulkDock/SCRATCH/511022/C30987-P54/C30987-P54.minimised.mol

>  <scratch_subdir>  (1294) 
/opt/xchem-fragalysis-2/maxwin/BulkDock/SCRATCH/511022/C30987-P54

>  <fragmenstein_runtime>  (1294) 
10.817772388458252

>  <fragmenstein_outcome>  (1294) 
too moved

>  <fragmenstein_mode>  (1294) 
expansion

>  <fragmenstein_error>  (1294) 


$$$$
C69279-P82
     RDKit          3D

 36 37  0  0  0  0  0  0  0  0999 V2000
  -13.7146  -27.0997   25.4743 C   0  0  0  0  0  0  0  0  0  0  0  0
  -11.9543  -26.7859   25.7706 S   0  0  0  0  0  0  0  0  0  0  0  0
  -12.0854  -25.2191   26.5787 C   0  0  0  0  0  0  0  0  0  0  0  0
  -11.8913  -24.0065   25.9561 C   0  0  0  0  0  0  0  0  0  0  0  0
  -11.9162  -22.8592   26.7366 C   0  0  0  0  0  0  0  0  0  0  0  0
  -12.0407  -22.8237   28.0601 N   0  0  0  0  0  0  0  0  0  0  0  0
  -12.2908  -24.0005   28.6041 C   0  0  0  0  0  0  0  0  0  0  0  0
  -12.4538  -24.1387   29.9356 N   0  0  0  0  0  0  0  0  0  0  0  0
  -12.1402  -23.1830   31.0685 C   0  0  0  0  0  0  0  0  0  0  0  0
  -11.7707  -22.1153   31.0446 O   0  0  0  0  0  0  0  0  0  0  0  0
  -12.3721  -24.1164   32.2421 N   0  0  0  0  0  0  0  0  0  0  0  0
  -12.1048  -23.9448   33.6033 C   0  0  0  0  0  0  0  0  0  0  0  0
  -10.9876  -24.9852   33.7852 C   0  0  0  0  0  0  0  0  0  0  0  0
   -9.7502  -24.8474   32.8653 C   0  0  0  0  0  0  0  0  0  0  0  0
   -9.8904  -25.5334   31.6002 N   0  0  0  0  0  0  0  0  0  0  0  0
  -10.4326  -26.7455   31.3694 C   0  0  0  0  0  0  0  0  0  0  0  0
  -10.6013  -26.9400   30.0894 N   0  0  0  0  0  0  0  0  0  0  0  0
   -9.9099  -25.8998   29.5674 C   0  0  0  0  0  0  0  0  0  0  0  0
   -9.4955  -24.9995   30.4498 N   0  0  0  0  0  0  0  0  0  0  0  0
  -12.3520  -25.2046   27.9202 C   0  0  0  0  0  0  0  0  0  0  0  0
  -13.8233  -28.0367   24.9218 H   0  0  0  0  0  0  0  0  0  0  0  0
  -14.2536  -27.1897   26.4212 H   0  0  0  0  0  0  0  0  0  0  0  0
  -14.1556  -26.2929   24.8824 H   0  0  0  0  0  0  0  0  0  0  0  0
  -11.7081  -23.9141   24.8946 H   0  0  0  0  0  0  0  0  0  0  0  0
  -11.8319  -21.8792   26.2930 H   0  0  0  0  0  0  0  0  0  0  0  0
  -12.8379  -24.9823   30.3060 H   0  0  0  0  0  0  0  0  0  0  0  0
  -12.7849  -24.9748   31.9145 H   0  0  0  0  0  0  0  0  0  0  0  0
  -13.0165  -24.1901   34.1429 H   0  0  0  0  0  0  0  0  0  0  0  0
  -11.7866  -22.9227   33.8021 H   0  0  0  0  0  0  0  0  0  0  0  0
  -10.7537  -25.1327   34.8355 H   0  0  0  0  0  0  0  0  0  0  0  0
  -11.4091  -25.9382   33.5267 H   0  0  0  0  0  0  0  0  0  0  0  0
   -9.5049  -23.8016   32.6776 H   0  0  0  0  0  0  0  0  0  0  0  0
   -8.8980  -25.3329   33.3443 H   0  0  0  0  0  0  0  0  0  0  0  0
  -10.6902  -27.4334   32.1493 H   0  0  0  0  0  0  0  0  0  0  0  0
   -9.7047  -25.7811   28.5128 H   0  0  0  0  0  0  0  0  0  0  0  0
  -12.5098  -26.1331   28.4539 H   0  0  0  0  0  0  0  0  0  0  0  0
  1  2  1  0
  2  3  1  0
  3  4  2  0
  4  5  1  0
  5  6  2  0
  6  7  1  0
  7  8  1  0
  8  9  1  0
  9 10  2  0
  9 11  1  0
 11 12  1  0
 12 13  1  0
 13 14  1  0
 14 15  1  0
 15 16  1  0
 16 17  2  0
 17 18  1  0
 18 19  2  0
  7 20  2  0
 20  3  1  0
 19 15  1  0
  1 21  1  0
  1 22  1  0
  1 23  1  0
  4 24  1  0
  5 25  1  0
  8 26  1  0
 11 27  1  0
 12 28  1  0
 12 29  1  0
 13 30  1  0
 13 31  1  0
 14 32  1  0
 14 33  1  0
 16 34  1  0
 18 35  1  0
 20 36  1  0
M  END
>  <Energy>  (1295) 
-37.350528726236099

>  <compound_id>  (1295) 
69279

>  <target_id>  (1295) 
1

>  <reference_id>  (1295) 
82

>  <inspiration_ids>  (1295) 
[82, 54]

>  <energy_score>  (1295) 
12.786496221150436

>  <distance_score>  (1295) 
2.4934845824405953

>  <path>  (1295) 
/opt/xchem-fragalysis-2/maxwin/BulkDock/SCRATCH/511022/C69279-P82/C69279-P82.minimised.mol

>  <scratch_subdir>  (1295) 
/opt/xchem-fragalysis-2/maxwin/BulkDock/SCRATCH/511022/C69279-P82

>  <fragmenstein_runtime>  (1295) 
4.685225486755371

>  <fragmenstein_outcome>  (1295) 
too moved

>  <fragmenstein_mode>  (1295) 
expansion

>  <fragmenstein_error>  (1295) 


$$$$
C69279-P54
     RDKit          3D

 36 37  0  0  0  0  0  0  0  0999 V2000
  -13.1740  -27.6497   27.4553 C   0  0  0  0  0  0  0  0  0  0  0  0
  -11.4609  -27.0951   27.2411 S   0  0  0  0  0  0  0  0  0  0  0  0
  -11.6871  -25.3377   27.1765 C   0  0  0  0  0  0  0  0  0  0  0  0
  -12.6656  -24.7163   26.4193 C   0  0  0  0  0  0  0  0  0  0  0  0
  -12.7825  -23.3415   26.4976 C   0  0  0  0  0  0  0  0  0  0  0  0
  -12.1037  -22.5885   27.3744 N   0  0  0  0  0  0  0  0  0  0  0  0
  -11.1999  -23.2137   28.1084 C   0  0  0  0  0  0  0  0  0  0  0  0
  -10.7426  -22.6801   29.2711 N   0  0  0  0  0  0  0  0  0  0  0  0
  -11.3456  -21.5874   30.1720 C   0  0  0  0  0  0  0  0  0  0  0  0
  -12.2633  -20.9370   30.0234 O   0  0  0  0  0  0  0  0  0  0  0  0
  -10.4066  -21.7090   31.3616 N   0  0  0  0  0  0  0  0  0  0  0  0
  -10.4694  -21.1158   32.6473 C   0  0  0  0  0  0  0  0  0  0  0  0
   -9.3505  -21.7333   33.5253 C   0  0  0  0  0  0  0  0  0  0  0  0
   -8.3784  -22.7839   32.9642 C   0  0  0  0  0  0  0  0  0  0  0  0
   -8.9789  -24.0099   32.5351 N   0  0  0  0  0  0  0  0  0  0  0  0
   -9.2131  -25.1003   33.2756 C   0  0  0  0  0  0  0  0  0  0  0  0
  -10.1761  -25.7886   32.7077 N   0  0  0  0  0  0  0  0  0  0  0  0
  -10.3441  -25.1636   31.5059 C   0  0  0  0  0  0  0  0  0  0  0  0
   -9.5223  -24.1313   31.3062 N   0  0  0  0  0  0  0  0  0  0  0  0
  -10.8693  -24.5523   27.9617 C   0  0  0  0  0  0  0  0  0  0  0  0
  -13.1758  -28.7253   27.6520 H   0  0  0  0  0  0  0  0  0  0  0  0
  -13.6411  -27.1415   28.3034 H   0  0  0  0  0  0  0  0  0  0  0  0
  -13.7587  -27.4682   26.5499 H   0  0  0  0  0  0  0  0  0  0  0  0
  -13.3096  -25.2726   25.7494 H   0  0  0  0  0  0  0  0  0  0  0  0
  -13.4870  -22.7986   25.8728 H   0  0  0  0  0  0  0  0  0  0  0  0
   -9.9686  -23.1187   29.7427 H   0  0  0  0  0  0  0  0  0  0  0  0
   -9.7444  -22.4370   31.1920 H   0  0  0  0  0  0  0  0  0  0  0  0
  -10.3738  -20.0302   32.5554 H   0  0  0  0  0  0  0  0  0  0  0  0
  -11.4542  -21.3219   33.0743 H   0  0  0  0  0  0  0  0  0  0  0  0
   -8.6993  -20.8937   33.7579 H   0  0  0  0  0  0  0  0  0  0  0  0
   -9.7869  -22.0842   34.4679 H   0  0  0  0  0  0  0  0  0  0  0  0
   -7.8340  -22.3890   32.1115 H   0  0  0  0  0  0  0  0  0  0  0  0
   -7.6329  -23.0269   33.7252 H   0  0  0  0  0  0  0  0  0  0  0  0
   -8.7031  -25.3112   34.2019 H   0  0  0  0  0  0  0  0  0  0  0  0
  -11.0617  -25.4893   30.7645 H   0  0  0  0  0  0  0  0  0  0  0  0
  -10.0937  -25.0038   28.5677 H   0  0  0  0  0  0  0  0  0  0  0  0
  1  2  1  0
  2  3  1  0
  3  4  2  0
  4  5  1  0
  5  6  2  0
  6  7  1  0
  7  8  1  0
  8  9  1  0
  9 10  2  0
  9 11  1  0
 11 12  1  0
 12 13  1  0
 13 14  1  0
 14 15  1  0
 15 16  1  0
 16 17  2  0
 17 18  1  0
 18 19  2  0
  7 20  2  0
 20  3  1  0
 19 15  1  0
  1 21  1  0
  1 22  1  0
  1 23  1  0
  4 24  1  0
  5 25  1  0
  8 26  1  0
 11 27  1  0
 12 28  1  0
 12 29  1  0
 13 30  1  0
 13 31  1  0
 14 32  1  0
 14 33  1  0
 16 34  1  0
 18 35  1  0
 20 36  1  0
M  END
>  <Energy>  (1296) 
-41.220837420414398

>  <compound_id>  (1296) 
69279

>  <target_id>  (1296) 
1

>  <reference_id>  (1296) 
54

>  <inspiration_ids>  (1296) 
[82, 54]

>  <energy_score>  (1296) 
8.916187526969303

>  <distance_score>  (1296) 
2.283828957121689

>  <path>  (1296) 
/opt/xchem-fragalysis-2/maxwin/BulkDock/SCRATCH/511022/C69279-P54/C69279-P54.minimised.mol

>  <scratch_subdir>  (1296) 
/opt/xchem-fragalysis-2/maxwin/BulkDock/SCRATCH/511022/C69279-P54

>  <fragmenstein_runtime>  (1296) 
4.90083122253418

>  <fragmenstein_outcome>  (1296) 
too moved

>  <fragmenstein_mode>  (1296) 
expansion

>  <fragmenstein_error>  (1296) 


$$$$
C69280-P82
     RDKit          3D

 36 37  0  0  0  0  0  0  0  0999 V2000
  -15.6686  -20.8873   31.1073 N   0  0  0  0  0  0  0  0  0  0  0  0
  -16.8975  -21.2094   31.7763 C   0  0  0  0  0  0  0  0  0  0  0  0
  -17.9718  -20.6876   31.7271 O   0  0  0  0  0  0  0  0  0  0  0  0
  -16.6445  -22.3689   32.6888 C   0  0  0  0  0  0  0  0  0  0  0  0
  -17.6556  -23.0831   33.2905 C   0  0  0  0  0  0  0  0  0  0  0  0
  -17.2755  -24.1429   34.1010 C   0  0  0  0  0  0  0  0  0  0  0  0
  -15.9227  -24.4360   34.2637 C   0  0  0  0  0  0  0  0  0  0  0  0
  -14.9827  -23.6682   33.5909 C   0  0  0  0  0  0  0  0  0  0  0  0
  -13.6586  -24.0436   33.6387 N   0  0  0  0  0  0  0  0  0  0  0  0
  -12.5039  -23.6294   32.8032 C   0  0  0  0  0  0  0  0  0  0  0  0
  -12.4341  -22.8231   31.9530 O   0  0  0  0  0  0  0  0  0  0  0  0
  -11.4893  -24.6006   33.2885 N   0  0  0  0  0  0  0  0  0  0  0  0
  -10.1681  -24.9023   32.8015 C   0  0  0  0  0  0  0  0  0  0  0  0
  -10.1883  -25.7727   31.5614 C   0  0  0  0  0  0  0  0  0  0  0  0
  -10.4762  -24.9956   30.2896 C   0  0  0  0  0  0  0  0  0  0  0  0
  -11.4075  -25.5767   29.3552 N   0  0  0  0  0  0  0  0  0  0  0  0
  -12.1776  -24.8811   28.4743 C   0  0  0  0  0  0  0  0  0  0  0  0
  -12.6637  -25.6976   27.5663 N   0  0  0  0  0  0  0  0  0  0  0  0
  -12.1181  -26.8910   27.9215 C   0  0  0  0  0  0  0  0  0  0  0  0
  -11.3653  -26.8776   29.0224 N   0  0  0  0  0  0  0  0  0  0  0  0
  -15.3102  -22.6273   32.8201 N   0  0  0  0  0  0  0  0  0  0  0  0
  -14.9589  -21.6462   31.3072 H   0  0  0  0  0  0  0  0  0  0  0  0
  -14.8975  -21.5012   31.4903 H   0  0  0  0  0  0  0  0  0  0  0  0
  -18.6970  -22.8293   33.1297 H   0  0  0  0  0  0  0  0  0  0  0  0
  -18.0297  -24.7495   34.5954 H   0  0  0  0  0  0  0  0  0  0  0  0
  -15.6292  -25.2823   34.8764 H   0  0  0  0  0  0  0  0  0  0  0  0
  -13.3895  -24.8198   34.2149 H   0  0  0  0  0  0  0  0  0  0  0  0
  -11.8533  -25.0895   34.0886 H   0  0  0  0  0  0  0  0  0  0  0  0
   -9.6452  -23.9622   32.6133 H   0  0  0  0  0  0  0  0  0  0  0  0
   -9.6531  -25.4379   33.6022 H   0  0  0  0  0  0  0  0  0  0  0  0
   -9.1944  -26.2129   31.4550 H   0  0  0  0  0  0  0  0  0  0  0  0
  -10.8724  -26.6047   31.7014 H   0  0  0  0  0  0  0  0  0  0  0  0
   -9.5436  -24.9159   29.7232 H   0  0  0  0  0  0  0  0  0  0  0  0
  -10.8394  -23.9896   30.4972 H   0  0  0  0  0  0  0  0  0  0  0  0
  -12.3256  -23.8112   28.5308 H   0  0  0  0  0  0  0  0  0  0  0  0
  -12.2839  -27.8051   27.3667 H   0  0  0  0  0  0  0  0  0  0  0  0
  1  2  1  0
  2  3  2  0
  2  4  1  0
  4  5  2  0
  5  6  1  0
  6  7  2  0
  7  8  1  0
  8  9  1  0
  9 10  1  0
 10 11  2  0
 10 12  1  0
 12 13  1  0
 13 14  1  0
 14 15  1  0
 15 16  1  0
 16 17  1  0
 17 18  2  0
 18 19  1  0
 19 20  2  0
  8 21  2  0
 21  4  1  0
 20 16  1  0
  1 22  1  0
  1 23  1  0
  5 24  1  0
  6 25  1  0
  7 26  1  0
  9 27  1  0
 12 28  1  0
 13 29  1  0
 13 30  1  0
 14 31  1  0
 14 32  1  0
 15 33  1  0
 15 34  1  0
 17 35  1  0
 19 36  1  0
M  END
>  <Energy>  (1297) 
117.94723018743687

>  <compound_id>  (1297) 
69280

>  <target_id>  (1297) 
1

>  <reference_id>  (1297) 
82

>  <inspiration_ids>  (1297) 
[82, 54]

>  <energy_score>  (1297) 
144.75952276695395

>  <distance_score>  (1297) 
5.702437612616247

>  <path>  (1297) 
/opt/xchem-fragalysis-2/maxwin/BulkDock/SCRATCH/511022/C69280-P82/C69280-P82.minimised.mol

>  <scratch_subdir>  (1297) 
/opt/xchem-fragalysis-2/maxwin/BulkDock/SCRATCH/511022/C69280-P82

>  <fragmenstein_runtime>  (1297) 
15.276352167129517

>  <fragmenstein_outcome>  (1297) 
too moved

>  <fragmenstein_mode>  (1297) 
expansion

>  <fragmenstein_error>  (1297) 


$$$$
C69280-P54
     RDKit          3D

 36 37  0  0  0  0  0  0  0  0999 V2000
  -13.8351  -22.9089   25.3633 N   0  0  0  0  0  0  0  0  0  0  0  0
  -13.8736  -24.3174   25.6662 C   0  0  0  0  0  0  0  0  0  0  0  0
  -14.5140  -25.2041   25.1758 O   0  0  0  0  0  0  0  0  0  0  0  0
  -12.9163  -24.7155   26.7531 C   0  0  0  0  0  0  0  0  0  0  0  0
  -12.6697  -26.0555   27.0258 C   0  0  0  0  0  0  0  0  0  0  0  0
  -11.8621  -26.3660   28.1112 C   0  0  0  0  0  0  0  0  0  0  0  0
  -11.3696  -25.3318   28.8979 C   0  0  0  0  0  0  0  0  0  0  0  0
  -11.6557  -24.0217   28.5352 C   0  0  0  0  0  0  0  0  0  0  0  0
  -11.3347  -23.0239   29.4250 N   0  0  0  0  0  0  0  0  0  0  0  0
  -11.5535  -21.5663   29.3569 C   0  0  0  0  0  0  0  0  0  0  0  0
  -11.9815  -20.9095   28.4939 O   0  0  0  0  0  0  0  0  0  0  0  0
  -11.1707  -21.2014   30.7170 N   0  0  0  0  0  0  0  0  0  0  0  0
  -11.2932  -19.9665   31.4216 C   0  0  0  0  0  0  0  0  0  0  0  0
  -10.6186  -20.0021   32.7856 C   0  0  0  0  0  0  0  0  0  0  0  0
  -10.9825  -21.2119   33.6208 C   0  0  0  0  0  0  0  0  0  0  0  0
  -10.1454  -22.3748   33.4154 N   0  0  0  0  0  0  0  0  0  0  0  0
   -9.3385  -22.9436   34.3442 C   0  0  0  0  0  0  0  0  0  0  0  0
   -8.8007  -24.0362   33.8665 N   0  0  0  0  0  0  0  0  0  0  0  0
   -9.2483  -24.0572   32.5832 C   0  0  0  0  0  0  0  0  0  0  0  0
  -10.1117  -23.0879   32.2591 N   0  0  0  0  0  0  0  0  0  0  0  0
  -12.3780  -23.6872   27.4496 N   0  0  0  0  0  0  0  0  0  0  0  0
  -13.0655  -22.4591   25.9224 H   0  0  0  0  0  0  0  0  0  0  0  0
  -13.2411  -22.4200   26.0816 H   0  0  0  0  0  0  0  0  0  0  0  0
  -13.1157  -26.8370   26.4173 H   0  0  0  0  0  0  0  0  0  0  0  0
  -11.6593  -27.4030   28.3646 H   0  0  0  0  0  0  0  0  0  0  0  0
  -10.8024  -25.5516   29.7947 H   0  0  0  0  0  0  0  0  0  0  0  0
  -11.0265  -23.2705   30.3496 H   0  0  0  0  0  0  0  0  0  0  0  0
  -10.7602  -22.0006   31.1715 H   0  0  0  0  0  0  0  0  0  0  0  0
  -10.9005  -19.1650   30.7931 H   0  0  0  0  0  0  0  0  0  0  0  0
  -12.3666  -19.7887   31.5434 H   0  0  0  0  0  0  0  0  0  0  0  0
  -10.9469  -19.0999   33.3143 H   0  0  0  0  0  0  0  0  0  0  0  0
   -9.5336  -19.9580   32.6966 H   0  0  0  0  0  0  0  0  0  0  0  0
  -12.0112  -21.4809   33.4308 H   0  0  0  0  0  0  0  0  0  0  0  0
  -10.9065  -20.9495   34.6798 H   0  0  0  0  0  0  0  0  0  0  0  0
   -9.2195  -22.5325   35.3300 H   0  0  0  0  0  0  0  0  0  0  0  0
   -8.9477  -24.8071   31.8667 H   0  0  0  0  0  0  0  0  0  0  0  0
  1  2  1  0
  2  3  2  0
  2  4  1  0
  4  5  2  0
  5  6  1  0
  6  7  2  0
  7  8  1  0
  8  9  1  0
  9 10  1  0
 10 11  2  0
 10 12  1  0
 12 13  1  0
 13 14  1  0
 14 15  1  0
 15 16  1  0
 16 17  1  0
 17 18  2  0
 18 19  1  0
 19 20  2  0
  8 21  2  0
 21  4  1  0
 20 16  1  0
  1 22  1  0
  1 23  1  0
  5 24  1  0
  6 25  1  0
  7 26  1  0
  9 27  1  0
 12 28  1  0
 13 29  1  0
 13 30  1  0
 14 31  1  0
 14 32  1  0
 15 33  1  0
 15 34  1  0
 17 35  1  0
 19 36  1  0
M  END
>  <Energy>  (1298) 
110.6300398133918

>  <compound_id>  (1298) 
69280

>  <target_id>  (1298) 
1

>  <reference_id>  (1298) 
54

>  <inspiration_ids>  (1298) 
[82, 54]

>  <energy_score>  (1298) 
137.44233239290784

>  <distance_score>  (1298) 
2.9664947004720514

>  <path>  (1298) 
/opt/xchem-fragalysis-2/maxwin/BulkDock/SCRATCH/511022/C69280-P54/C69280-P54.minimised.mol

>  <scratch_subdir>  (1298) 
/opt/xchem-fragalysis-2/maxwin/BulkDock/SCRATCH/511022/C69280-P54

>  <fragmenstein_runtime>  (1298) 
10.16640305519104

>  <fragmenstein_outcome>  (1298) 
too moved

>  <fragmenstein_mode>  (1298) 
expansion

>  <fragmenstein_error>  (1298) 


$$$$
C34641-P82
     RDKit          3D

 45 46  0  0  0  0  0  0  0  0999 V2000
  -16.3622  -21.1148   33.8203 C   0  0  0  0  0  0  0  0  0  0  0  0
  -15.3555  -21.5878   32.8646 N   0  0  0  0  0  0  0  0  0  0  0  0
  -16.0102  -21.7765   31.5683 C   0  0  0  0  0  0  0  0  0  0  0  0
  -14.8038  -22.8944   33.3094 C   0  0  0  0  0  0  0  0  0  0  0  0
  -13.3642  -23.1936   32.9903 C   0  0  0  0  0  0  0  0  0  0  0  0
  -12.7829  -24.3550   33.4962 C   0  0  0  0  0  0  0  0  0  0  0  0
  -11.4895  -24.7094   33.1666 C   0  0  0  0  0  0  0  0  0  0  0  0
  -10.7858  -24.0485   32.2525 N   0  0  0  0  0  0  0  0  0  0  0  0
  -11.4555  -23.0404   31.6516 C   0  0  0  0  0  0  0  0  0  0  0  0
  -11.3613  -23.1168   30.2875 N   0  0  0  0  0  0  0  0  0  0  0  0
  -11.9292  -22.2103   29.2086 C   0  0  0  0  0  0  0  0  0  0  0  0
  -12.4873  -21.2378   29.2956 O   0  0  0  0  0  0  0  0  0  0  0  0
  -11.6114  -23.0533   27.9876 N   0  0  0  0  0  0  0  0  0  0  0  0
  -12.0082  -22.8994   26.6391 C   0  0  0  0  0  0  0  0  0  0  0  0
  -11.6325  -24.0579   25.7328 C   0  0  0  0  0  0  0  0  0  0  0  0
  -12.2606  -25.3890   26.1734 C   0  0  0  0  0  0  0  0  0  0  0  0
  -11.7214  -25.8221   27.4970 C   0  0  0  0  0  0  0  0  0  0  0  0
  -12.3618  -25.6372   28.6831 C   0  0  0  0  0  0  0  0  0  0  0  0
  -11.8002  -25.8183   29.8945 N   0  0  0  0  0  0  0  0  0  0  0  0
  -10.5165  -26.1408   29.9429 C   0  0  0  0  0  0  0  0  0  0  0  0
   -9.7750  -26.2504   28.8545 N   0  0  0  0  0  0  0  0  0  0  0  0
  -10.4220  -26.1831   27.6776 C   0  0  0  0  0  0  0  0  0  0  0  0
  -12.6130  -22.4564   32.1135 C   0  0  0  0  0  0  0  0  0  0  0  0
  -17.1678  -21.8425   33.9735 H   0  0  0  0  0  0  0  0  0  0  0  0
  -16.8079  -20.1747   33.4745 H   0  0  0  0  0  0  0  0  0  0  0  0
  -15.9050  -20.8935   34.7878 H   0  0  0  0  0  0  0  0  0  0  0  0
  -16.8179  -22.5171   31.5993 H   0  0  0  0  0  0  0  0  0  0  0  0
  -15.2819  -22.0862   30.8233 H   0  0  0  0  0  0  0  0  0  0  0  0
  -16.4386  -20.8304   31.2246 H   0  0  0  0  0  0  0  0  0  0  0  0
  -15.4301  -23.7201   32.9493 H   0  0  0  0  0  0  0  0  0  0  0  0
  -14.8864  -22.9470   34.3988 H   0  0  0  0  0  0  0  0  0  0  0  0
  -13.3615  -24.9880   34.1526 H   0  0  0  0  0  0  0  0  0  0  0  0
  -11.0051  -25.5718   33.6063 H   0  0  0  0  0  0  0  0  0  0  0  0
  -10.8545  -23.8606   29.8659 H   0  0  0  0  0  0  0  0  0  0  0  0
  -11.0272  -23.8191   28.2519 H   0  0  0  0  0  0  0  0  0  0  0  0
  -11.7565  -21.9001   26.3143 H   0  0  0  0  0  0  0  0  0  0  0  0
  -13.0943  -22.9466   26.6994 H   0  0  0  0  0  0  0  0  0  0  0  0
  -11.9772  -23.8059   24.7282 H   0  0  0  0  0  0  0  0  0  0  0  0
  -10.5517  -24.1762   25.6873 H   0  0  0  0  0  0  0  0  0  0  0  0
  -12.0333  -26.1637   25.4310 H   0  0  0  0  0  0  0  0  0  0  0  0
  -13.3534  -25.3078   26.2095 H   0  0  0  0  0  0  0  0  0  0  0  0
  -13.3551  -25.2294   28.7167 H   0  0  0  0  0  0  0  0  0  0  0  0
  -10.0502  -26.2944   30.9092 H   0  0  0  0  0  0  0  0  0  0  0  0
   -9.8227  -26.4670   26.8356 H   0  0  0  0  0  0  0  0  0  0  0  0
  -13.0817  -21.6477   31.5858 H   0  0  0  0  0  0  0  0  0  0  0  0
  1  2  1  0
  2  3  1  0
  2  4  1  0
  4  5  1  0
  5  6  2  0
  6  7  1  0
  7  8  2  0
  8  9  1  0
  9 10  1  0
 10 11  1  0
 11 12  2  0
 11 13  1  0
 13 14  1  0
 14 15  1  0
 15 16  1  0
 16 17  1  0
 17 18  2  0
 18 19  1  0
 19 20  2  0
 20 21  1  0
 21 22  2  0
  9 23  2  0
 23  5  1  0
 22 17  1  0
  1 24  1  0
  1 25  1  0
  1 26  1  0
  3 27  1  0
  3 28  1  0
  3 29  1  0
  4 30  1  0
  4 31  1  0
  6 32  1  0
  7 33  1  0
 10 34  1  0
 13 35  1  0
 14 36  1  0
 14 37  1  0
 15 38  1  0
 15 39  1  0
 16 40  1  0
 16 41  1  0
 18 42  1  0
 20 43  1  0
 22 44  1  0
 23 45  1  0
M  END
>  <Energy>  (1299) 
-14.772102123919154

>  <compound_id>  (1299) 
34641

>  <target_id>  (1299) 
1

>  <reference_id>  (1299) 
82

>  <inspiration_ids>  (1299) 
[82, 54]

>  <energy_score>  (1299) 
8.042681648590957

>  <distance_score>  (1299) 
2.715766476066363

>  <path>  (1299) 
/opt/xchem-fragalysis-2/maxwin/BulkDock/SCRATCH/511022/C34641-P82/C34641-P82.minimised.mol

>  <scratch_subdir>  (1299) 
/opt/xchem-fragalysis-2/maxwin/BulkDock/SCRATCH/511022/C34641-P82

>  <fragmenstein_runtime>  (1299) 
4.804140329360962

>  <fragmenstein_outcome>  (1299) 
too moved

>  <fragmenstein_mode>  (1299) 
expansion

>  <fragmenstein_error>  (1299) 


$$$$
C34641-P54
     RDKit          3D

 45 46  0  0  0  0  0  0  0  0999 V2000
   -9.0758  -20.9763   33.0453 C   0  0  0  0  0  0  0  0  0  0  0  0
  -10.4511  -20.7057   32.6523 N   0  0  0  0  0  0  0  0  0  0  0  0
  -11.3571  -20.6734   33.7908 C   0  0  0  0  0  0  0  0  0  0  0  0
  -10.9588  -21.4779   31.5137 C   0  0  0  0  0  0  0  0  0  0  0  0
  -10.6649  -22.9550   31.4279 C   0  0  0  0  0  0  0  0  0  0  0  0
   -9.9899  -23.6697   32.4099 C   0  0  0  0  0  0  0  0  0  0  0  0
   -9.9014  -25.0242   32.3010 C   0  0  0  0  0  0  0  0  0  0  0  0
  -10.5311  -25.7116   31.3433 N   0  0  0  0  0  0  0  0  0  0  0  0
  -11.0570  -25.0477   30.3221 C   0  0  0  0  0  0  0  0  0  0  0  0
  -11.5662  -25.7974   29.2836 N   0  0  0  0  0  0  0  0  0  0  0  0
  -11.9439  -27.2433   29.2182 C   0  0  0  0  0  0  0  0  0  0  0  0
  -11.8211  -28.0937   30.0152 O   0  0  0  0  0  0  0  0  0  0  0  0
  -12.6059  -27.2636   27.8947 N   0  0  0  0  0  0  0  0  0  0  0  0
  -13.3714  -28.2932   27.2421 C   0  0  0  0  0  0  0  0  0  0  0  0
  -14.8652  -28.0996   27.5549 C   0  0  0  0  0  0  0  0  0  0  0  0
  -15.5499  -26.9202   26.8256 C   0  0  0  0  0  0  0  0  0  0  0  0
  -14.7910  -25.6333   26.8586 C   0  0  0  0  0  0  0  0  0  0  0  0
  -14.2130  -25.1167   25.7221 C   0  0  0  0  0  0  0  0  0  0  0  0
  -13.3420  -24.0968   25.7194 N   0  0  0  0  0  0  0  0  0  0  0  0
  -13.0263  -23.5884   26.9029 C   0  0  0  0  0  0  0  0  0  0  0  0
  -13.5286  -24.0051   28.0783 N   0  0  0  0  0  0  0  0  0  0  0  0
  -14.4662  -24.9755   28.0226 C   0  0  0  0  0  0  0  0  0  0  0  0
  -11.1275  -23.6668   30.3123 C   0  0  0  0  0  0  0  0  0  0  0  0
   -8.9967  -21.4929   34.0056 H   0  0  0  0  0  0  0  0  0  0  0  0
   -8.5107  -20.0556   33.1236 H   0  0  0  0  0  0  0  0  0  0  0  0
   -8.5267  -21.5802   32.3197 H   0  0  0  0  0  0  0  0  0  0  0  0
  -11.3863  -21.6315   34.3134 H   0  0  0  0  0  0  0  0  0  0  0  0
  -12.3705  -20.3974   33.4844 H   0  0  0  0  0  0  0  0  0  0  0  0
  -11.0488  -19.9090   34.5089 H   0  0  0  0  0  0  0  0  0  0  0  0
  -10.5591  -21.0263   30.5990 H   0  0  0  0  0  0  0  0  0  0  0  0
  -12.0423  -21.3310   31.4278 H   0  0  0  0  0  0  0  0  0  0  0  0
   -9.6135  -23.2513   33.3265 H   0  0  0  0  0  0  0  0  0  0  0  0
   -9.3980  -25.6057   33.0650 H   0  0  0  0  0  0  0  0  0  0  0  0
  -11.8872  -25.3340   28.4596 H   0  0  0  0  0  0  0  0  0  0  0  0
  -12.4546  -26.3854   27.4356 H   0  0  0  0  0  0  0  0  0  0  0  0
  -13.1816  -28.2445   26.1666 H   0  0  0  0  0  0  0  0  0  0  0  0
  -13.0355  -29.2594   27.6305 H   0  0  0  0  0  0  0  0  0  0  0  0
  -14.9929  -27.9707   28.6379 H   0  0  0  0  0  0  0  0  0  0  0  0
  -15.4034  -29.0167   27.2855 H   0  0  0  0  0  0  0  0  0  0  0  0
  -16.5440  -26.7585   27.2610 H   0  0  0  0  0  0  0  0  0  0  0  0
  -15.7267  -27.2171   25.7836 H   0  0  0  0  0  0  0  0  0  0  0  0
  -14.4005  -25.5579   24.7490 H   0  0  0  0  0  0  0  0  0  0  0  0
  -12.3130  -22.7702   26.9141 H   0  0  0  0  0  0  0  0  0  0  0  0
  -14.8767  -25.2851   28.9803 H   0  0  0  0  0  0  0  0  0  0  0  0
  -11.6133  -23.1372   29.5041 H   0  0  0  0  0  0  0  0  0  0  0  0
  1  2  1  0
  2  3  1  0
  2  4  1  0
  4  5  1  0
  5  6  2  0
  6  7  1  0
  7  8  2  0
  8  9  1  0
  9 10  1  0
 10 11  1  0
 11 12  2  0
 11 13  1  0
 13 14  1  0
 14 15  1  0
 15 16  1  0
 16 17  1  0
 17 18  2  0
 18 19  1  0
 19 20  2  0
 20 21  1  0
 21 22  2  0
  9 23  2  0
 23  5  1  0
 22 17  1  0
  1 24  1  0
  1 25  1  0
  1 26  1  0
  3 27  1  0
  3 28  1  0
  3 29  1  0
  4 30  1  0
  4 31  1  0
  6 32  1  0
  7 33  1  0
 10 34  1  0
 13 35  1  0
 14 36  1  0
 14 37  1  0
 15 38  1  0
 15 39  1  0
 16 40  1  0
 16 41  1  0
 18 42  1  0
 20 43  1  0
 22 44  1  0
 23 45  1  0
M  END
>  <Energy>  (1300) 
-38.597059907042933

>  <compound_id>  (1300) 
34641

>  <target_id>  (1300) 
1

>  <reference_id>  (1300) 
54

>  <inspiration_ids>  (1300) 
[82, 54]

>  <energy_score>  (1300) 
0.6735508140174531

>  <distance_score>  (1300) 
3.5762457534546406

>  <path>  (1300) 
/opt/xchem-fragalysis-2/maxwin/BulkDock/SCRATCH/511022/C34641-P54/C34641-P54.minimised.mol

>  <scratch_subdir>  (1300) 
/opt/xchem-fragalysis-2/maxwin/BulkDock/SCRATCH/511022/C34641-P54

>  <fragmenstein_runtime>  (1300) 
8.667676448822021

>  <fragmenstein_outcome>  (1300) 
too moved

>  <fragmenstein_mode>  (1300) 
expansion

>  <fragmenstein_error>  (1300) 


$$$$
C69281-P82
     RDKit          3D

 45 46  0  0  0  0  0  0  0  0999 V2000
  -12.7658  -22.6997   24.1382 C   0  0  0  0  0  0  0  0  0  0  0  0
  -12.2884  -23.6148   25.2848 C   0  0  0  0  0  0  0  0  0  0  0  0
  -10.9416  -24.2485   24.9545 C   0  0  0  0  0  0  0  0  0  0  0  0
  -12.1152  -22.7721   26.5679 C   0  0  0  0  0  0  0  0  0  0  0  0
  -13.2436  -24.7230   25.3891 O   0  0  0  0  0  0  0  0  0  0  0  0
  -12.8556  -25.6018   26.3624 C   0  0  0  0  0  0  0  0  0  0  0  0
  -12.8407  -26.9595   26.1837 C   0  0  0  0  0  0  0  0  0  0  0  0
  -12.3546  -27.7225   27.2439 C   0  0  0  0  0  0  0  0  0  0  0  0
  -11.9768  -27.0967   28.4422 C   0  0  0  0  0  0  0  0  0  0  0  0
  -12.0913  -25.7313   28.5332 C   0  0  0  0  0  0  0  0  0  0  0  0
  -12.3940  -25.0860   29.7000 N   0  0  0  0  0  0  0  0  0  0  0  0
  -12.3124  -23.6430   30.0626 C   0  0  0  0  0  0  0  0  0  0  0  0
  -11.8913  -22.7314   29.4571 O   0  0  0  0  0  0  0  0  0  0  0  0
  -13.0002  -23.6835   31.3522 N   0  0  0  0  0  0  0  0  0  0  0  0
  -13.2762  -22.6574   32.2873 C   0  0  0  0  0  0  0  0  0  0  0  0
  -12.1114  -22.6469   33.2404 C   0  0  0  0  0  0  0  0  0  0  0  0
  -11.8468  -24.0807   33.7179 C   0  0  0  0  0  0  0  0  0  0  0  0
  -10.8992  -24.8014   32.8939 N   0  0  0  0  0  0  0  0  0  0  0  0
   -9.6442  -24.4445   32.5529 C   0  0  0  0  0  0  0  0  0  0  0  0
   -9.1292  -25.3078   31.7206 N   0  0  0  0  0  0  0  0  0  0  0  0
  -10.1176  -26.2149   31.5922 C   0  0  0  0  0  0  0  0  0  0  0  0
  -11.2320  -25.9335   32.2696 N   0  0  0  0  0  0  0  0  0  0  0  0
  -12.4769  -25.0335   27.4931 N   0  0  0  0  0  0  0  0  0  0  0  0
  -12.4371  -23.0238   23.1576 H   0  0  0  0  0  0  0  0  0  0  0  0
  -12.3545  -21.6876   24.2128 H   0  0  0  0  0  0  0  0  0  0  0  0
  -13.8588  -22.6548   24.0947 H   0  0  0  0  0  0  0  0  0  0  0  0
  -11.0335  -25.2987   24.6877 H   0  0  0  0  0  0  0  0  0  0  0  0
  -10.3101  -24.2698   25.8441 H   0  0  0  0  0  0  0  0  0  0  0  0
  -10.4205  -23.7303   24.1502 H   0  0  0  0  0  0  0  0  0  0  0  0
  -11.8455  -21.7369   26.3790 H   0  0  0  0  0  0  0  0  0  0  0  0
  -11.2856  -23.1183   27.1923 H   0  0  0  0  0  0  0  0  0  0  0  0
  -13.0124  -22.7964   27.1807 H   0  0  0  0  0  0  0  0  0  0  0  0
  -13.1591  -27.4075   25.2523 H   0  0  0  0  0  0  0  0  0  0  0  0
  -12.3082  -28.8050   27.1563 H   0  0  0  0  0  0  0  0  0  0  0  0
  -11.7085  -27.6751   29.3140 H   0  0  0  0  0  0  0  0  0  0  0  0
  -12.7335  -25.6049   30.4825 H   0  0  0  0  0  0  0  0  0  0  0  0
  -13.2985  -24.6251   31.5384 H   0  0  0  0  0  0  0  0  0  0  0  0
  -14.2172  -22.8918   32.7936 H   0  0  0  0  0  0  0  0  0  0  0  0
  -13.3722  -21.7063   31.7679 H   0  0  0  0  0  0  0  0  0  0  0  0
  -12.3367  -21.9716   34.0667 H   0  0  0  0  0  0  0  0  0  0  0  0
  -11.2478  -22.2300   32.7143 H   0  0  0  0  0  0  0  0  0  0  0  0
  -12.7734  -24.6657   33.7586 H   0  0  0  0  0  0  0  0  0  0  0  0
  -11.4634  -24.0865   34.7272 H   0  0  0  0  0  0  0  0  0  0  0  0
   -9.1583  -23.5549   32.8994 H   0  0  0  0  0  0  0  0  0  0  0  0
  -10.0174  -27.1136   31.0002 H   0  0  0  0  0  0  0  0  0  0  0  0
  1  2  1  0
  2  3  1  0
  2  4  1  0
  2  5  1  0
  5  6  1  0
  6  7  2  0
  7  8  1  0
  8  9  2  0
  9 10  1  0
 10 11  1  0
 11 12  1  0
 12 13  2  0
 12 14  1  0
 14 15  1  0
 15 16  1  0
 16 17  1  0
 17 18  1  0
 18 19  1  0
 19 20  2  0
 20 21  1  0
 21 22  2  0
 10 23  2  0
 23  6  1  0
 22 18  1  0
  1 24  1  0
  1 25  1  0
  1 26  1  0
  3 27  1  0
  3 28  1  0
  3 29  1  0
  4 30  1  0
  4 31  1  0
  4 32  1  0
  7 33  1  0
  8 34  1  0
  9 35  1  0
 11 36  1  0
 14 37  1  0
 15 38  1  0
 15 39  1  0
 16 40  1  0
 16 41  1  0
 17 42  1  0
 17 43  1  0
 19 44  1  0
 21 45  1  0
M  END
>  <Energy>  (1301) 
-15.624467823341369

>  <compound_id>  (1301) 
69281

>  <target_id>  (1301) 
1

>  <reference_id>  (1301) 
82

>  <inspiration_ids>  (1301) 
[82, 54]

>  <energy_score>  (1301) 
9.596743976892753

>  <distance_score>  (1301) 
3.219728095233995

>  <path>  (1301) 
/opt/xchem-fragalysis-2/maxwin/BulkDock/SCRATCH/511022/C69281-P82/C69281-P82.minimised.mol

>  <scratch_subdir>  (1301) 
/opt/xchem-fragalysis-2/maxwin/BulkDock/SCRATCH/511022/C69281-P82

>  <fragmenstein_runtime>  (1301) 
16.539037704467773

>  <fragmenstein_outcome>  (1301) 
too moved

>  <fragmenstein_mode>  (1301) 
expansion

>  <fragmenstein_error>  (1301) 


$$$$
C69281-P54
     RDKit          3D

 45 46  0  0  0  0  0  0  0  0999 V2000
  -11.8114  -21.7429   24.2692 C   0  0  0  0  0  0  0  0  0  0  0  0
  -11.6622  -22.4439   25.6526 C   0  0  0  0  0  0  0  0  0  0  0  0
  -10.4601  -23.4104   25.6517 C   0  0  0  0  0  0  0  0  0  0  0  0
  -11.4621  -21.4671   26.8691 C   0  0  0  0  0  0  0  0  0  0  0  0
  -12.8860  -23.2088   25.6963 O   0  0  0  0  0  0  0  0  0  0  0  0
  -12.9673  -24.0287   26.7729 C   0  0  0  0  0  0  0  0  0  0  0  0
  -13.8789  -25.0482   26.7424 C   0  0  0  0  0  0  0  0  0  0  0  0
  -14.1128  -25.7006   27.9296 C   0  0  0  0  0  0  0  0  0  0  0  0
  -13.4986  -25.2228   29.0766 C   0  0  0  0  0  0  0  0  0  0  0  0
  -12.5763  -24.1949   28.9816 C   0  0  0  0  0  0  0  0  0  0  0  0
  -12.0519  -23.5642   30.0770 N   0  0  0  0  0  0  0  0  0  0  0  0
  -10.6861  -22.8695   30.2732 C   0  0  0  0  0  0  0  0  0  0  0  0
   -9.8503  -22.6653   29.5277 O   0  0  0  0  0  0  0  0  0  0  0  0
  -10.7458  -22.6251   31.8028 N   0  0  0  0  0  0  0  0  0  0  0  0
   -9.7437  -22.1698   32.7015 C   0  0  0  0  0  0  0  0  0  0  0  0
   -9.1819  -23.3912   33.4343 C   0  0  0  0  0  0  0  0  0  0  0  0
   -9.0131  -24.6401   32.5490 C   0  0  0  0  0  0  0  0  0  0  0  0
  -10.1604  -25.5321   32.4046 N   0  0  0  0  0  0  0  0  0  0  0  0
  -10.4762  -26.6425   33.1517 C   0  0  0  0  0  0  0  0  0  0  0  0
  -11.5323  -27.2563   32.6766 N   0  0  0  0  0  0  0  0  0  0  0  0
  -11.6629  -26.6747   31.4659 C   0  0  0  0  0  0  0  0  0  0  0  0
  -10.9010  -25.5983   31.2750 N   0  0  0  0  0  0  0  0  0  0  0  0
  -12.2386  -23.6941   27.8312 N   0  0  0  0  0  0  0  0  0  0  0  0
  -12.0632  -20.6840   24.3600 H   0  0  0  0  0  0  0  0  0  0  0  0
  -10.9016  -21.7907   23.6622 H   0  0  0  0  0  0  0  0  0  0  0  0
  -12.6098  -22.1907   23.6667 H   0  0  0  0  0  0  0  0  0  0  0  0
   -9.8074  -23.2185   24.8024 H   0  0  0  0  0  0  0  0  0  0  0  0
  -10.7220  -24.4713   25.6521 H   0  0  0  0  0  0  0  0  0  0  0  0
   -9.8555  -23.2924   26.5555 H   0  0  0  0  0  0  0  0  0  0  0  0
  -11.3402  -20.4273   26.5834 H   0  0  0  0  0  0  0  0  0  0  0  0
  -10.5575  -21.6836   27.4407 H   0  0  0  0  0  0  0  0  0  0  0  0
  -12.2608  -21.4753   27.6043 H   0  0  0  0  0  0  0  0  0  0  0  0
  -14.4167  -25.2987   25.8388 H   0  0  0  0  0  0  0  0  0  0  0  0
  -14.8358  -26.5091   27.9816 H   0  0  0  0  0  0  0  0  0  0  0  0
  -13.7861  -25.6819   30.0057 H   0  0  0  0  0  0  0  0  0  0  0  0
  -12.5124  -23.6508   30.9551 H   0  0  0  0  0  0  0  0  0  0  0  0
  -11.6669  -22.8436   32.1451 H   0  0  0  0  0  0  0  0  0  0  0  0
   -8.9460  -21.7047   32.1257 H   0  0  0  0  0  0  0  0  0  0  0  0
  -10.1720  -21.4427   33.3960 H   0  0  0  0  0  0  0  0  0  0  0  0
   -8.2044  -23.1049   33.8398 H   0  0  0  0  0  0  0  0  0  0  0  0
   -9.8108  -23.6284   34.2929 H   0  0  0  0  0  0  0  0  0  0  0  0
   -8.2215  -25.2422   33.0058 H   0  0  0  0  0  0  0  0  0  0  0  0
   -8.6924  -24.3718   31.5404 H   0  0  0  0  0  0  0  0  0  0  0  0
   -9.8147  -27.0512   33.9054 H   0  0  0  0  0  0  0  0  0  0  0  0
  -12.3141  -27.0696   30.7003 H   0  0  0  0  0  0  0  0  0  0  0  0
  1  2  1  0
  2  3  1  0
  2  4  1  0
  2  5  1  0
  5  6  1  0
  6  7  2  0
  7  8  1  0
  8  9  2  0
  9 10  1  0
 10 11  1  0
 11 12  1  0
 12 13  2  0
 12 14  1  0
 14 15  1  0
 15 16  1  0
 16 17  1  0
 17 18  1  0
 18 19  1  0
 19 20  2  0
 20 21  1  0
 21 22  2  0
 10 23  2  0
 23  6  1  0
 22 18  1  0
  1 24  1  0
  1 25  1  0
  1 26  1  0
  3 27  1  0
  3 28  1  0
  3 29  1  0
  4 30  1  0
  4 31  1  0
  4 32  1  0
  7 33  1  0
  8 34  1  0
  9 35  1  0
 11 36  1  0
 14 37  1  0
 15 38  1  0
 15 39  1  0
 16 40  1  0
 16 41  1  0
 17 42  1  0
 17 43  1  0
 19 44  1  0
 21 45  1  0
M  END
>  <Energy>  (1302) 
-0.73645191605008486

>  <compound_id>  (1302) 
69281

>  <target_id>  (1302) 
1

>  <reference_id>  (1302) 
54

>  <inspiration_ids>  (1302) 
[82, 54]

>  <energy_score>  (1302) 
44.54650385336453

>  <distance_score>  (1302) 
2.4031519269768773

>  <path>  (1302) 
/opt/xchem-fragalysis-2/maxwin/BulkDock/SCRATCH/511022/C69281-P54/C69281-P54.minimised.mol

>  <scratch_subdir>  (1302) 
/opt/xchem-fragalysis-2/maxwin/BulkDock/SCRATCH/511022/C69281-P54

>  <fragmenstein_runtime>  (1302) 
11.819139003753662

>  <fragmenstein_outcome>  (1302) 
too moved

>  <fragmenstein_mode>  (1302) 
expansion

>  <fragmenstein_error>  (1302) 


$$$$
C69282-P82
     RDKit          3D

 36 37  0  0  0  0  0  0  0  0999 V2000
  -12.4791  -21.2736   29.1261 O   0  0  0  0  0  0  0  0  0  0  0  0
  -11.9928  -22.0683   29.7508 C   0  0  0  0  0  0  0  0  0  0  0  0
  -12.0602  -22.3198   31.2344 N   0  0  0  0  0  0  0  0  0  0  0  0
  -12.8199  -21.6905   32.2295 C   0  0  0  0  0  0  0  0  0  0  0  0
  -13.3225  -22.8142   33.0698 C   0  0  0  0  0  0  0  0  0  0  0  0
  -12.2368  -23.4918   33.8500 C   0  0  0  0  0  0  0  0  0  0  0  0
  -11.2816  -24.3890   33.2811 N   0  0  0  0  0  0  0  0  0  0  0  0
  -10.8089  -25.4454   33.9751 C   0  0  0  0  0  0  0  0  0  0  0  0
   -9.6081  -25.7245   33.5789 N   0  0  0  0  0  0  0  0  0  0  0  0
   -9.4909  -25.0048   32.4473 C   0  0  0  0  0  0  0  0  0  0  0  0
  -10.4403  -24.0804   32.2750 N   0  0  0  0  0  0  0  0  0  0  0  0
  -11.1663  -23.2511   29.3459 N   0  0  0  0  0  0  0  0  0  0  0  0
  -10.8589  -23.7301   28.1157 C   0  0  0  0  0  0  0  0  0  0  0  0
  -11.9560  -23.8255   27.2973 C   0  0  0  0  0  0  0  0  0  0  0  0
  -12.4498  -25.1050   27.1127 C   0  0  0  0  0  0  0  0  0  0  0  0
  -11.8012  -26.1800   27.7053 C   0  0  0  0  0  0  0  0  0  0  0  0
  -10.6217  -25.9290   28.3723 C   0  0  0  0  0  0  0  0  0  0  0  0
  -10.0391  -26.7586   29.2462 O   0  0  0  0  0  0  0  0  0  0  0  0
  -10.9919  -27.0387   30.2290 C   0  0  0  0  0  0  0  0  0  0  0  0
  -11.9456  -27.8750   29.7301 F   0  0  0  0  0  0  0  0  0  0  0  0
  -11.6029  -25.9233   30.6770 F   0  0  0  0  0  0  0  0  0  0  0  0
  -10.4165  -27.6665   31.2601 F   0  0  0  0  0  0  0  0  0  0  0  0
  -10.0364  -24.7497   28.3641 N   0  0  0  0  0  0  0  0  0  0  0  0
  -11.4346  -23.0729   31.4786 H   0  0  0  0  0  0  0  0  0  0  0  0
  -13.7137  -21.2583   31.7938 H   0  0  0  0  0  0  0  0  0  0  0  0
  -12.2063  -20.9810   32.7866 H   0  0  0  0  0  0  0  0  0  0  0  0
  -13.8486  -23.5561   32.4532 H   0  0  0  0  0  0  0  0  0  0  0  0
  -14.0739  -22.4110   33.7593 H   0  0  0  0  0  0  0  0  0  0  0  0
  -11.7104  -22.7564   34.4430 H   0  0  0  0  0  0  0  0  0  0  0  0
  -12.8275  -24.1255   34.4912 H   0  0  0  0  0  0  0  0  0  0  0  0
  -11.3023  -25.8589   34.8261 H   0  0  0  0  0  0  0  0  0  0  0  0
   -8.6911  -25.1700   31.7474 H   0  0  0  0  0  0  0  0  0  0  0  0
  -10.8177  -23.7147   30.1662 H   0  0  0  0  0  0  0  0  0  0  0  0
  -12.5342  -22.9562   27.0144 H   0  0  0  0  0  0  0  0  0  0  0  0
  -13.3707  -25.2515   26.5573 H   0  0  0  0  0  0  0  0  0  0  0  0
  -12.2287  -27.1727   27.6398 H   0  0  0  0  0  0  0  0  0  0  0  0
  1  2  2  0
  2  3  1  0
  3  4  1  0
  4  5  1  0
  5  6  1  0
  6  7  1  0
  7  8  1  0
  8  9  2  0
  9 10  1  0
 10 11  2  0
  2 12  1  0
 12 13  1  0
 13 14  2  0
 14 15  1  0
 15 16  2  0
 16 17  1  0
 17 18  1  0
 18 19  1  0
 19 20  1  0
 19 21  1  0
 19 22  1  0
 17 23  2  0
 11  7  1  0
 23 13  1  0
  3 24  1  0
  4 25  1  0
  4 26  1  0
  5 27  1  0
  5 28  1  0
  6 29  1  0
  6 30  1  0
  8 31  1  0
 10 32  1  0
 12 33  1  0
 14 34  1  0
 15 35  1  0
 16 36  1  0
M  END
>  <Energy>  (1303) 
-23.572504904307532

>  <compound_id>  (1303) 
69282

>  <target_id>  (1303) 
1

>  <reference_id>  (1303) 
82

>  <inspiration_ids>  (1303) 
[82, 54]

>  <energy_score>  (1303) 
33.46367460690915

>  <distance_score>  (1303) 
3.5152873216497595

>  <path>  (1303) 
/opt/xchem-fragalysis-2/maxwin/BulkDock/SCRATCH/511022/C69282-P82/C69282-P82.minimised.mol

>  <scratch_subdir>  (1303) 
/opt/xchem-fragalysis-2/maxwin/BulkDock/SCRATCH/511022/C69282-P82

>  <fragmenstein_runtime>  (1303) 
7.008877277374268

>  <fragmenstein_outcome>  (1303) 
too moved

>  <fragmenstein_mode>  (1303) 
expansion

>  <fragmenstein_error>  (1303) 


$$$$
C69282-P54
     RDKit          3D

 36 37  0  0  0  0  0  0  0  0999 V2000
  -12.9076  -22.7477   29.4432 O   0  0  0  0  0  0  0  0  0  0  0  0
  -11.9505  -22.8439   30.0387 C   0  0  0  0  0  0  0  0  0  0  0  0
  -11.1138  -21.7807   30.7379 N   0  0  0  0  0  0  0  0  0  0  0  0
  -11.3499  -20.4031   30.9154 C   0  0  0  0  0  0  0  0  0  0  0  0
  -11.3497  -20.2229   32.4402 C   0  0  0  0  0  0  0  0  0  0  0  0
  -10.1234  -20.6996   33.2297 C   0  0  0  0  0  0  0  0  0  0  0  0
   -9.7903  -22.0919   33.3946 N   0  0  0  0  0  0  0  0  0  0  0  0
   -9.6475  -22.6960   34.6006 C   0  0  0  0  0  0  0  0  0  0  0  0
   -9.0428  -23.8473   34.4650 N   0  0  0  0  0  0  0  0  0  0  0  0
   -8.7387  -23.8676   33.1399 C   0  0  0  0  0  0  0  0  0  0  0  0
   -9.2328  -22.8516   32.4180 N   0  0  0  0  0  0  0  0  0  0  0  0
  -11.1714  -24.0892   30.4655 N   0  0  0  0  0  0  0  0  0  0  0  0
  -11.4710  -25.4117   30.3204 C   0  0  0  0  0  0  0  0  0  0  0  0
  -11.1976  -26.1042   31.4900 C   0  0  0  0  0  0  0  0  0  0  0  0
  -11.9090  -27.2433   31.8122 C   0  0  0  0  0  0  0  0  0  0  0  0
  -12.8088  -27.7117   30.8868 C   0  0  0  0  0  0  0  0  0  0  0  0
  -12.9660  -27.0057   29.7016 C   0  0  0  0  0  0  0  0  0  0  0  0
  -13.8651  -27.5353   28.8095 O   0  0  0  0  0  0  0  0  0  0  0  0
  -13.9579  -26.8093   27.5983 C   0  0  0  0  0  0  0  0  0  0  0  0
  -12.7790  -26.7665   26.9371 F   0  0  0  0  0  0  0  0  0  0  0  0
  -14.4505  -25.5687   27.7811 F   0  0  0  0  0  0  0  0  0  0  0  0
  -14.8307  -27.4712   26.7954 F   0  0  0  0  0  0  0  0  0  0  0  0
  -12.3473  -25.8477   29.4234 N   0  0  0  0  0  0  0  0  0  0  0  0
  -10.2721  -22.2013   31.1094 H   0  0  0  0  0  0  0  0  0  0  0  0
  -12.3401  -20.1651   30.5233 H   0  0  0  0  0  0  0  0  0  0  0  0
  -10.6322  -19.7937   30.3774 H   0  0  0  0  0  0  0  0  0  0  0  0
  -11.4887  -19.1527   32.6402 H   0  0  0  0  0  0  0  0  0  0  0  0
  -12.2281  -20.7226   32.8598 H   0  0  0  0  0  0  0  0  0  0  0  0
   -9.2159  -20.2084   32.8792 H   0  0  0  0  0  0  0  0  0  0  0  0
  -10.3271  -20.3347   34.2390 H   0  0  0  0  0  0  0  0  0  0  0  0
   -9.9994  -22.2460   35.5147 H   0  0  0  0  0  0  0  0  0  0  0  0
   -8.1726  -24.6716   32.6899 H   0  0  0  0  0  0  0  0  0  0  0  0
  -10.4032  -23.8208   31.0590 H   0  0  0  0  0  0  0  0  0  0  0  0
  -10.5014  -25.7066   32.2196 H   0  0  0  0  0  0  0  0  0  0  0  0
  -11.7460  -27.7668   32.7491 H   0  0  0  0  0  0  0  0  0  0  0  0
  -13.3695  -28.6243   31.0632 H   0  0  0  0  0  0  0  0  0  0  0  0
  1  2  2  0
  2  3  1  0
  3  4  1  0
  4  5  1  0
  5  6  1  0
  6  7  1  0
  7  8  1  0
  8  9  2  0
  9 10  1  0
 10 11  2  0
  2 12  1  0
 12 13  1  0
 13 14  2  0
 14 15  1  0
 15 16  2  0
 16 17  1  0
 17 18  1  0
 18 19  1  0
 19 20  1  0
 19 21  1  0
 19 22  1  0
 17 23  2  0
 11  7  1  0
 23 13  1  0
  3 24  1  0
  4 25  1  0
  4 26  1  0
  5 27  1  0
  5 28  1  0
  6 29  1  0
  6 30  1  0
  8 31  1  0
 10 32  1  0
 12 33  1  0
 14 34  1  0
 15 35  1  0
 16 36  1  0
M  END
>  <Energy>  (1304) 
-66.598003537015217

>  <compound_id>  (1304) 
69282

>  <target_id>  (1304) 
1

>  <reference_id>  (1304) 
54

>  <inspiration_ids>  (1304) 
[82, 54]

>  <energy_score>  (1304) 
-9.561824025801457

>  <distance_score>  (1304) 
2.685689879181877

>  <path>  (1304) 
/opt/xchem-fragalysis-2/maxwin/BulkDock/SCRATCH/511022/C69282-P54/C69282-P54.minimised.mol

>  <scratch_subdir>  (1304) 
/opt/xchem-fragalysis-2/maxwin/BulkDock/SCRATCH/511022/C69282-P54

>  <fragmenstein_runtime>  (1304) 
4.830522537231445

>  <fragmenstein_outcome>  (1304) 
too moved

>  <fragmenstein_mode>  (1304) 
expansion

>  <fragmenstein_error>  (1304) 


$$$$
C69283-P82
     RDKit          3D

 37 38  0  0  0  0  0  0  0  0999 V2000
  -11.8081  -22.5221   33.3867 C   0  0  0  0  0  0  0  0  0  0  0  0
  -10.8113  -23.4645   32.7821 C   0  0  0  0  0  0  0  0  0  0  0  0
   -9.6004  -23.5494   32.9233 O   0  0  0  0  0  0  0  0  0  0  0  0
  -11.2908  -24.3321   31.7858 C   0  0  0  0  0  0  0  0  0  0  0  0
  -11.9436  -23.7643   30.7049 C   0  0  0  0  0  0  0  0  0  0  0  0
  -12.0543  -24.5406   29.5949 C   0  0  0  0  0  0  0  0  0  0  0  0
  -11.5975  -25.8287   29.7159 C   0  0  0  0  0  0  0  0  0  0  0  0
  -11.7407  -26.7387   28.7535 N   0  0  0  0  0  0  0  0  0  0  0  0
  -12.0014  -26.5699   27.2798 C   0  0  0  0  0  0  0  0  0  0  0  0
  -12.2070  -25.6416   26.6771 O   0  0  0  0  0  0  0  0  0  0  0  0
  -11.8063  -27.9982   26.8373 N   0  0  0  0  0  0  0  0  0  0  0  0
  -11.7354  -28.5417   25.5690 C   0  0  0  0  0  0  0  0  0  0  0  0
  -10.2258  -28.5176   25.1506 C   0  0  0  0  0  0  0  0  0  0  0  0
   -9.0330  -29.6964   25.2453 C   0  0  0  0  0  0  0  0  0  0  0  0
   -8.5070  -30.4654   24.0348 N   0  0  0  0  0  0  0  0  0  0  0  0
   -7.3743  -30.3106   23.2661 C   0  0  0  0  0  0  0  0  0  0  0  0
   -7.2214  -31.2947   22.4150 N   0  0  0  0  0  0  0  0  0  0  0  0
   -8.1817  -32.1636   22.7859 C   0  0  0  0  0  0  0  0  0  0  0  0
   -8.9450  -31.7815   23.8165 N   0  0  0  0  0  0  0  0  0  0  0  0
  -10.9606  -26.3905   30.7541 N   0  0  0  0  0  0  0  0  0  0  0  0
  -10.7789  -25.6067   31.7944 C   0  0  0  0  0  0  0  0  0  0  0  0
  -11.7789  -22.5986   34.4641 H   0  0  0  0  0  0  0  0  0  0  0  0
  -12.8322  -22.7897   33.1031 H   0  0  0  0  0  0  0  0  0  0  0  0
  -11.6291  -21.5003   33.0427 H   0  0  0  0  0  0  0  0  0  0  0  0
  -12.2736  -22.7332   30.6818 H   0  0  0  0  0  0  0  0  0  0  0  0
  -12.5030  -24.1679   28.6859 H   0  0  0  0  0  0  0  0  0  0  0  0
  -11.5160  -27.6875   28.9456 H   0  0  0  0  0  0  0  0  0  0  0  0
  -11.7221  -28.5905   27.6415 H   0  0  0  0  0  0  0  0  0  0  0  0
  -12.2943  -27.8762   24.8993 H   0  0  0  0  0  0  0  0  0  0  0  0
  -12.3084  -29.4598   25.6772 H   0  0  0  0  0  0  0  0  0  0  0  0
  -10.3621  -28.3232   24.0920 H   0  0  0  0  0  0  0  0  0  0  0  0
   -9.7950  -27.6358   25.6253 H   0  0  0  0  0  0  0  0  0  0  0  0
   -8.1371  -29.1933   25.6086 H   0  0  0  0  0  0  0  0  0  0  0  0
   -9.3354  -30.4507   25.9759 H   0  0  0  0  0  0  0  0  0  0  0  0
   -6.6095  -29.5873   23.4687 H   0  0  0  0  0  0  0  0  0  0  0  0
   -8.3170  -33.1251   22.3110 H   0  0  0  0  0  0  0  0  0  0  0  0
  -10.1852  -26.0010   32.6096 H   0  0  0  0  0  0  0  0  0  0  0  0
  1  2  1  0
  2  3  2  0
  2  4  1  0
  4  5  2  0
  5  6  1  0
  6  7  2  0
  7  8  1  0
  8  9  1  0
  9 10  2  0
  9 11  1  0
 11 12  1  0
 12 13  1  0
 13 14  1  0
 14 15  1  0
 15 16  1  0
 16 17  2  0
 17 18  1  0
 18 19  2  0
  7 20  1  0
 20 21  2  0
 21  4  1  0
 19 15  1  0
  1 22  1  0
  1 23  1  0
  1 24  1  0
  5 25  1  0
  6 26  1  0
  8 27  1  0
 11 28  1  0
 12 29  1  0
 12 30  1  0
 13 31  1  0
 13 32  1  0
 14 33  1  0
 14 34  1  0
 16 35  1  0
 18 36  1  0
 21 37  1  0
M  END
>  <Energy>  (1305) 
15.027169682254145

>  <compound_id>  (1305) 
69283

>  <target_id>  (1305) 
1

>  <reference_id>  (1305) 
82

>  <inspiration_ids>  (1305) 
[82, 54]

>  <energy_score>  (1305) 
38.585937183809335

>  <distance_score>  (1305) 
2.194159972156946

>  <path>  (1305) 
/opt/xchem-fragalysis-2/maxwin/BulkDock/SCRATCH/511022/C69283-P82/C69283-P82.minimised.mol

>  <scratch_subdir>  (1305) 
/opt/xchem-fragalysis-2/maxwin/BulkDock/SCRATCH/511022/C69283-P82

>  <fragmenstein_runtime>  (1305) 
6.137916564941406

>  <fragmenstein_outcome>  (1305) 
too moved

>  <fragmenstein_mode>  (1305) 
expansion

>  <fragmenstein_error>  (1305) 


$$$$
C69283-P54
     RDKit          3D

 37 38  0  0  0  0  0  0  0  0999 V2000
   -9.4364  -22.0976   33.9000 C   0  0  0  0  0  0  0  0  0  0  0  0
   -9.3822  -23.3792   33.1352 C   0  0  0  0  0  0  0  0  0  0  0  0
   -8.7137  -24.3329   33.5184 O   0  0  0  0  0  0  0  0  0  0  0  0
  -10.1829  -23.5127   31.9059 C   0  0  0  0  0  0  0  0  0  0  0  0
  -10.8291  -22.4697   31.2655 C   0  0  0  0  0  0  0  0  0  0  0  0
  -11.5840  -22.7446   30.1219 C   0  0  0  0  0  0  0  0  0  0  0  0
  -11.6925  -24.0575   29.6719 C   0  0  0  0  0  0  0  0  0  0  0  0
  -12.5201  -24.3280   28.5970 N   0  0  0  0  0  0  0  0  0  0  0  0
  -12.9111  -25.6843   27.9438 C   0  0  0  0  0  0  0  0  0  0  0  0
  -12.5415  -26.7404   28.1619 O   0  0  0  0  0  0  0  0  0  0  0  0
  -14.0040  -25.1866   26.9548 N   0  0  0  0  0  0  0  0  0  0  0  0
  -14.9098  -25.9276   26.1174 C   0  0  0  0  0  0  0  0  0  0  0  0
  -15.7958  -26.9230   26.8587 C   0  0  0  0  0  0  0  0  0  0  0  0
  -15.0357  -28.1603   27.3398 C   0  0  0  0  0  0  0  0  0  0  0  0
  -15.8311  -29.3652   27.2346 N   0  0  0  0  0  0  0  0  0  0  0  0
  -16.4854  -30.0269   28.2236 C   0  0  0  0  0  0  0  0  0  0  0  0
  -17.0998  -31.0711   27.7167 N   0  0  0  0  0  0  0  0  0  0  0  0
  -16.7755  -31.0061   26.3916 C   0  0  0  0  0  0  0  0  0  0  0  0
  -15.9934  -29.9791   26.0447 N   0  0  0  0  0  0  0  0  0  0  0  0
  -11.0984  -25.0816   30.2989 N   0  0  0  0  0  0  0  0  0  0  0  0
  -10.3556  -24.7802   31.3855 C   0  0  0  0  0  0  0  0  0  0  0  0
   -9.0319  -22.2752   34.8997 H   0  0  0  0  0  0  0  0  0  0  0  0
  -10.4673  -21.7550   34.0204 H   0  0  0  0  0  0  0  0  0  0  0  0
   -8.8329  -21.3409   33.3934 H   0  0  0  0  0  0  0  0  0  0  0  0
  -10.7674  -21.4478   31.6261 H   0  0  0  0  0  0  0  0  0  0  0  0
  -12.0911  -21.9317   29.6154 H   0  0  0  0  0  0  0  0  0  0  0  0
  -13.0922  -23.5991   28.2261 H   0  0  0  0  0  0  0  0  0  0  0  0
  -14.0245  -24.1814   26.9510 H   0  0  0  0  0  0  0  0  0  0  0  0
  -15.5459  -25.1862   25.6260 H   0  0  0  0  0  0  0  0  0  0  0  0
  -14.3123  -26.4298   25.3517 H   0  0  0  0  0  0  0  0  0  0  0  0
  -16.2825  -26.4374   27.7135 H   0  0  0  0  0  0  0  0  0  0  0  0
  -16.5992  -27.2193   26.1720 H   0  0  0  0  0  0  0  0  0  0  0  0
  -14.7467  -28.0511   28.3904 H   0  0  0  0  0  0  0  0  0  0  0  0
  -14.1292  -28.3417   26.7525 H   0  0  0  0  0  0  0  0  0  0  0  0
  -16.4843  -29.7178   29.2595 H   0  0  0  0  0  0  0  0  0  0  0  0
  -17.1192  -31.7279   25.6615 H   0  0  0  0  0  0  0  0  0  0  0  0
   -9.9322  -25.6208   31.9063 H   0  0  0  0  0  0  0  0  0  0  0  0
  1  2  1  0
  2  3  2  0
  2  4  1  0
  4  5  2  0
  5  6  1  0
  6  7  2  0
  7  8  1  0
  8  9  1  0
  9 10  2  0
  9 11  1  0
 11 12  1  0
 12 13  1  0
 13 14  1  0
 14 15  1  0
 15 16  1  0
 16 17  2  0
 17 18  1  0
 18 19  2  0
  7 20  1  0
 20 21  2  0
 21  4  1  0
 19 15  1  0
  1 22  1  0
  1 23  1  0
  1 24  1  0
  5 25  1  0
  6 26  1  0
  8 27  1  0
 11 28  1  0
 12 29  1  0
 12 30  1  0
 13 31  1  0
 13 32  1  0
 14 33  1  0
 14 34  1  0
 16 35  1  0
 18 36  1  0
 21 37  1  0
M  END
>  <Energy>  (1306) 
-29.76836790693989

>  <compound_id>  (1306) 
69283

>  <target_id>  (1306) 
1

>  <reference_id>  (1306) 
54

>  <inspiration_ids>  (1306) 
[82, 54]

>  <energy_score>  (1306) 
-6.209600405390603

>  <distance_score>  (1306) 
1.909615988166972

>  <path>  (1306) 
/opt/xchem-fragalysis-2/maxwin/BulkDock/SCRATCH/511022/C69283-P54/C69283-P54.minimised.mol

>  <scratch_subdir>  (1306) 
/opt/xchem-fragalysis-2/maxwin/BulkDock/SCRATCH/511022/C69283-P54

>  <fragmenstein_runtime>  (1306) 
11.797095775604248

>  <fragmenstein_outcome>  (1306) 
too moved

>  <fragmenstein_mode>  (1306) 
expansion

>  <fragmenstein_error>  (1306) 


$$$$
C69284-P82
     RDKit          3D

 38 39  0  0  0  0  0  0  0  0999 V2000
  -12.2729  -23.0808   24.9166 C   0  0  0  0  0  0  0  0  0  0  0  0
  -13.6202  -23.3894   24.5912 O   0  0  0  0  0  0  0  0  0  0  0  0
  -14.2343  -24.4852   25.0535 C   0  0  0  0  0  0  0  0  0  0  0  0
  -15.4000  -24.7090   24.7248 O   0  0  0  0  0  0  0  0  0  0  0  0
  -13.4908  -25.4963   25.8698 C   0  0  0  0  0  0  0  0  0  0  0  0
  -13.8219  -26.7964   25.5264 C   0  0  0  0  0  0  0  0  0  0  0  0
  -13.2447  -27.8415   26.2073 C   0  0  0  0  0  0  0  0  0  0  0  0
  -12.3583  -27.5586   27.2153 C   0  0  0  0  0  0  0  0  0  0  0  0
  -12.0537  -26.2398   27.5120 C   0  0  0  0  0  0  0  0  0  0  0  0
  -11.2250  -26.1557   28.6080 N   0  0  0  0  0  0  0  0  0  0  0  0
  -10.7665  -24.9400   29.4129 C   0  0  0  0  0  0  0  0  0  0  0  0
  -10.9479  -23.8329   29.2387 O   0  0  0  0  0  0  0  0  0  0  0  0
  -10.0666  -25.6698   30.5954 N   0  0  0  0  0  0  0  0  0  0  0  0
   -9.5459  -25.1519   31.8297 C   0  0  0  0  0  0  0  0  0  0  0  0
  -10.4697  -25.5165   32.9583 C   0  0  0  0  0  0  0  0  0  0  0  0
  -11.8715  -25.0095   32.7360 C   0  0  0  0  0  0  0  0  0  0  0  0
  -12.0548  -23.6157   32.5781 N   0  0  0  0  0  0  0  0  0  0  0  0
  -12.5696  -22.9800   31.5119 C   0  0  0  0  0  0  0  0  0  0  0  0
  -12.6010  -21.7024   31.7810 N   0  0  0  0  0  0  0  0  0  0  0  0
  -12.1865  -21.6394   33.0719 C   0  0  0  0  0  0  0  0  0  0  0  0
  -11.8717  -22.8054   33.6123 N   0  0  0  0  0  0  0  0  0  0  0  0
  -12.6016  -25.1836   26.8654 N   0  0  0  0  0  0  0  0  0  0  0  0
  -12.0010  -22.2514   24.2588 H   0  0  0  0  0  0  0  0  0  0  0  0
  -11.5903  -23.9102   24.7190 H   0  0  0  0  0  0  0  0  0  0  0  0
  -12.1914  -22.7736   25.9623 H   0  0  0  0  0  0  0  0  0  0  0  0
  -14.5393  -27.0009   24.7333 H   0  0  0  0  0  0  0  0  0  0  0  0
  -13.5017  -28.8687   25.9605 H   0  0  0  0  0  0  0  0  0  0  0  0
  -11.9565  -28.3918   27.7778 H   0  0  0  0  0  0  0  0  0  0  0  0
  -10.8219  -26.9843   28.9937 H   0  0  0  0  0  0  0  0  0  0  0  0
  -10.0030  -26.6532   30.3969 H   0  0  0  0  0  0  0  0  0  0  0  0
   -9.4875  -24.0761   31.7859 H   0  0  0  0  0  0  0  0  0  0  0  0
   -8.5568  -25.5778   31.9967 H   0  0  0  0  0  0  0  0  0  0  0  0
  -10.0669  -25.2216   33.9162 H   0  0  0  0  0  0  0  0  0  0  0  0
  -10.5739  -26.5995   33.0044 H   0  0  0  0  0  0  0  0  0  0  0  0
  -12.2799  -25.4714   31.8391 H   0  0  0  0  0  0  0  0  0  0  0  0
  -12.5090  -25.2807   33.5786 H   0  0  0  0  0  0  0  0  0  0  0  0
  -12.9048  -23.4599   30.6047 H   0  0  0  0  0  0  0  0  0  0  0  0
  -12.1129  -20.7184   33.6351 H   0  0  0  0  0  0  0  0  0  0  0  0
  1  2  1  0
  2  3  1  0
  3  4  2  0
  3  5  1  0
  5  6  2  0
  6  7  1  0
  7  8  2  0
  8  9  1  0
  9 10  1  0
 10 11  1  0
 11 12  2  0
 11 13  1  0
 13 14  1  0
 14 15  1  0
 15 16  1  0
 16 17  1  0
 17 18  1  0
 18 19  2  0
 19 20  1  0
 20 21  2  0
  9 22  2  0
 22  5  1  0
 21 17  1  0
  1 23  1  0
  1 24  1  0
  1 25  1  0
  6 26  1  0
  7 27  1  0
  8 28  1  0
 10 29  1  0
 13 30  1  0
 14 31  1  0
 14 32  1  0
 15 33  1  0
 15 34  1  0
 16 35  1  0
 16 36  1  0
 18 37  1  0
 20 38  1  0
M  END
>  <Energy>  (1307) 
8.0936978378041626

>  <compound_id>  (1307) 
69284

>  <target_id>  (1307) 
1

>  <reference_id>  (1307) 
82

>  <inspiration_ids>  (1307) 
[82, 54]

>  <energy_score>  (1307) 
-1.125550374839463

>  <distance_score>  (1307) 
4.019376529736209

>  <path>  (1307) 
/opt/xchem-fragalysis-2/maxwin/BulkDock/SCRATCH/511022/C69284-P82/C69284-P82.minimised.mol

>  <scratch_subdir>  (1307) 
/opt/xchem-fragalysis-2/maxwin/BulkDock/SCRATCH/511022/C69284-P82

>  <fragmenstein_runtime>  (1307) 
8.146888017654419

>  <fragmenstein_outcome>  (1307) 
too moved

>  <fragmenstein_mode>  (1307) 
expansion

>  <fragmenstein_error>  (1307) 


$$$$
C69284-P54
     RDKit          3D

 38 39  0  0  0  0  0  0  0  0999 V2000
  -12.0135  -21.6820   23.9010 C   0  0  0  0  0  0  0  0  0  0  0  0
  -12.2830  -22.3740   25.1223 O   0  0  0  0  0  0  0  0  0  0  0  0
  -11.2578  -23.0873   25.6226 C   0  0  0  0  0  0  0  0  0  0  0  0
  -10.1598  -23.2674   25.1296 O   0  0  0  0  0  0  0  0  0  0  0  0
  -11.6380  -23.7614   26.8547 C   0  0  0  0  0  0  0  0  0  0  0  0
  -11.6353  -25.1522   26.8998 C   0  0  0  0  0  0  0  0  0  0  0  0
  -11.8289  -25.7579   28.1285 C   0  0  0  0  0  0  0  0  0  0  0  0
  -11.9752  -24.9465   29.2446 C   0  0  0  0  0  0  0  0  0  0  0  0
  -11.9443  -23.5620   29.0819 C   0  0  0  0  0  0  0  0  0  0  0  0
  -11.9815  -22.7764   30.1998 N   0  0  0  0  0  0  0  0  0  0  0  0
  -11.6586  -21.3431   30.3854 C   0  0  0  0  0  0  0  0  0  0  0  0
  -11.3692  -20.5248   29.6008 O   0  0  0  0  0  0  0  0  0  0  0  0
  -11.7127  -21.2766   31.8445 N   0  0  0  0  0  0  0  0  0  0  0  0
  -11.3440  -20.2413   32.7413 C   0  0  0  0  0  0  0  0  0  0  0  0
  -10.6237  -20.9249   33.8959 C   0  0  0  0  0  0  0  0  0  0  0  0
   -9.2539  -21.4888   33.4927 C   0  0  0  0  0  0  0  0  0  0  0  0
   -9.2873  -22.8339   32.9883 N   0  0  0  0  0  0  0  0  0  0  0  0
   -9.2799  -23.2737   31.7084 C   0  0  0  0  0  0  0  0  0  0  0  0
   -9.3505  -24.5828   31.7023 N   0  0  0  0  0  0  0  0  0  0  0  0
   -9.1916  -24.8887   33.0187 C   0  0  0  0  0  0  0  0  0  0  0  0
   -9.2324  -23.8571   33.8564 N   0  0  0  0  0  0  0  0  0  0  0  0
  -11.8042  -22.9575   27.9125 N   0  0  0  0  0  0  0  0  0  0  0  0
  -12.7766  -21.9789   23.1854 H   0  0  0  0  0  0  0  0  0  0  0  0
  -11.0351  -21.8988   23.4643 H   0  0  0  0  0  0  0  0  0  0  0  0
  -12.0832  -20.6073   24.0755 H   0  0  0  0  0  0  0  0  0  0  0  0
  -11.4532  -25.7445   26.0108 H   0  0  0  0  0  0  0  0  0  0  0  0
  -11.8162  -26.8394   28.2232 H   0  0  0  0  0  0  0  0  0  0  0  0
  -12.0433  -25.3983   30.2270 H   0  0  0  0  0  0  0  0  0  0  0  0
  -12.1039  -23.2058   31.0928 H   0  0  0  0  0  0  0  0  0  0  0  0
  -12.0808  -22.1350   32.2002 H   0  0  0  0  0  0  0  0  0  0  0  0
  -12.2624  -19.7606   33.0911 H   0  0  0  0  0  0  0  0  0  0  0  0
  -10.7284  -19.4953   32.2321 H   0  0  0  0  0  0  0  0  0  0  0  0
  -10.5437  -20.1772   34.6790 H   0  0  0  0  0  0  0  0  0  0  0  0
  -11.2413  -21.7207   34.3240 H   0  0  0  0  0  0  0  0  0  0  0  0
   -8.7425  -20.8498   32.7773 H   0  0  0  0  0  0  0  0  0  0  0  0
   -8.5947  -21.5800   34.3563 H   0  0  0  0  0  0  0  0  0  0  0  0
   -9.2396  -22.6269   30.8444 H   0  0  0  0  0  0  0  0  0  0  0  0
   -9.0759  -25.8913   33.3981 H   0  0  0  0  0  0  0  0  0  0  0  0
  1  2  1  0
  2  3  1  0
  3  4  2  0
  3  5  1  0
  5  6  2  0
  6  7  1  0
  7  8  2  0
  8  9  1  0
  9 10  1  0
 10 11  1  0
 11 12  2  0
 11 13  1  0
 13 14  1  0
 14 15  1  0
 15 16  1  0
 16 17  1  0
 17 18  1  0
 18 19  2  0
 19 20  1  0
 20 21  2  0
  9 22  2  0
 22  5  1  0
 21 17  1  0
  1 23  1  0
  1 24  1  0
  1 25  1  0
  6 26  1  0
  7 27  1  0
  8 28  1  0
 10 29  1  0
 13 30  1  0
 14 31  1  0
 14 32  1  0
 15 33  1  0
 15 34  1  0
 16 35  1  0
 16 36  1  0
 18 37  1  0
 20 38  1  0
M  END
>  <Energy>  (1308) 
-13.999778098244112

>  <compound_id>  (1308) 
69284

>  <target_id>  (1308) 
1

>  <reference_id>  (1308) 
54

>  <inspiration_ids>  (1308) 
[82, 54]

>  <energy_score>  (1308) 
-20.686524946474663

>  <distance_score>  (1308) 
2.2499832295926265

>  <path>  (1308) 
/opt/xchem-fragalysis-2/maxwin/BulkDock/SCRATCH/511022/C69284-P54/C69284-P54.minimised.mol

>  <scratch_subdir>  (1308) 
/opt/xchem-fragalysis-2/maxwin/BulkDock/SCRATCH/511022/C69284-P54

>  <fragmenstein_runtime>  (1308) 
7.999164342880249

>  <fragmenstein_outcome>  (1308) 
too moved

>  <fragmenstein_mode>  (1308) 
expansion

>  <fragmenstein_error>  (1308) 


$$$$
C30992-P82
     RDKit          3D

 43 44  0  0  0  0  0  0  0  0999 V2000
  -13.4284  -22.2635   31.8371 C   0  0  0  0  0  0  0  0  0  0  0  0
  -13.1174  -23.2460   32.9503 C   0  0  0  0  0  0  0  0  0  0  0  0
  -14.4145  -23.7454   33.5751 C   0  0  0  0  0  0  0  0  0  0  0  0
  -12.1167  -24.3094   32.5708 C   0  0  0  0  0  0  0  0  0  0  0  0
  -11.1416  -24.6845   33.4515 C   0  0  0  0  0  0  0  0  0  0  0  0
   -9.9900  -25.3113   32.9877 C   0  0  0  0  0  0  0  0  0  0  0  0
   -9.7839  -25.6909   31.7253 N   0  0  0  0  0  0  0  0  0  0  0  0
  -10.8705  -25.6557   30.9801 C   0  0  0  0  0  0  0  0  0  0  0  0
  -10.7831  -26.0365   29.6689 N   0  0  0  0  0  0  0  0  0  0  0  0
  -11.5578  -27.1230   28.8881 C   0  0  0  0  0  0  0  0  0  0  0  0
  -12.3128  -27.8912   29.2516 O   0  0  0  0  0  0  0  0  0  0  0  0
  -11.0823  -26.7904   27.4535 N   0  0  0  0  0  0  0  0  0  0  0  0
  -11.5293  -27.2892   26.1929 C   0  0  0  0  0  0  0  0  0  0  0  0
  -12.8570  -26.5930   25.8696 C   0  0  0  0  0  0  0  0  0  0  0  0
  -12.7102  -25.0782   25.6474 C   0  0  0  0  0  0  0  0  0  0  0  0
  -12.3964  -24.1462   26.7491 C   0  0  0  0  0  0  0  0  0  0  0  0
  -12.0177  -22.8747   26.4760 C   0  0  0  0  0  0  0  0  0  0  0  0
  -11.5829  -21.9805   27.3809 N   0  0  0  0  0  0  0  0  0  0  0  0
  -11.5449  -22.3631   28.6359 C   0  0  0  0  0  0  0  0  0  0  0  0
  -11.9485  -23.5464   29.0196 N   0  0  0  0  0  0  0  0  0  0  0  0
  -12.4518  -24.3677   28.0767 C   0  0  0  0  0  0  0  0  0  0  0  0
  -12.0249  -24.9444   31.3583 C   0  0  0  0  0  0  0  0  0  0  0  0
  -14.0727  -21.4627   32.2126 H   0  0  0  0  0  0  0  0  0  0  0  0
  -12.5077  -21.8183   31.4504 H   0  0  0  0  0  0  0  0  0  0  0  0
  -13.9564  -22.7394   31.0153 H   0  0  0  0  0  0  0  0  0  0  0  0
  -12.6184  -22.6357   33.7151 H   0  0  0  0  0  0  0  0  0  0  0  0
  -15.1209  -24.0925   32.8244 H   0  0  0  0  0  0  0  0  0  0  0  0
  -14.2445  -24.5515   34.2903 H   0  0  0  0  0  0  0  0  0  0  0  0
  -14.9212  -22.9289   34.1014 H   0  0  0  0  0  0  0  0  0  0  0  0
  -11.2871  -24.4417   34.4935 H   0  0  0  0  0  0  0  0  0  0  0  0
   -9.1599  -25.5187   33.6491 H   0  0  0  0  0  0  0  0  0  0  0  0
  -10.2582  -25.4753   29.0321 H   0  0  0  0  0  0  0  0  0  0  0  0
  -10.3407  -26.1089   27.4917 H   0  0  0  0  0  0  0  0  0  0  0  0
  -10.7672  -27.1055   25.4362 H   0  0  0  0  0  0  0  0  0  0  0  0
  -11.6990  -28.3654   26.2886 H   0  0  0  0  0  0  0  0  0  0  0  0
  -13.5975  -26.7867   26.6549 H   0  0  0  0  0  0  0  0  0  0  0  0
  -13.2491  -27.0385   24.9473 H   0  0  0  0  0  0  0  0  0  0  0  0
  -13.6197  -24.7192   25.1499 H   0  0  0  0  0  0  0  0  0  0  0  0
  -11.8592  -24.9611   24.9714 H   0  0  0  0  0  0  0  0  0  0  0  0
  -12.0929  -22.5097   25.4539 H   0  0  0  0  0  0  0  0  0  0  0  0
  -11.2004  -21.6621   29.3787 H   0  0  0  0  0  0  0  0  0  0  0  0
  -12.9550  -25.2413   28.4661 H   0  0  0  0  0  0  0  0  0  0  0  0
  -12.8490  -24.8279   30.6713 H   0  0  0  0  0  0  0  0  0  0  0  0
  1  2  1  0
  2  3  1  0
  2  4  1  0
  4  5  2  0
  5  6  1  0
  6  7  2  0
  7  8  1  0
  8  9  1  0
  9 10  1  0
 10 11  2  0
 10 12  1  0
 12 13  1  0
 13 14  1  0
 14 15  1  0
 15 16  1  0
 16 17  2  0
 17 18  1  0
 18 19  2  0
 19 20  1  0
 20 21  2  0
  8 22  2  0
 22  4  1  0
 21 16  1  0
  1 23  1  0
  1 24  1  0
  1 25  1  0
  2 26  1  0
  3 27  1  0
  3 28  1  0
  3 29  1  0
  5 30  1  0
  6 31  1  0
  9 32  1  0
 12 33  1  0
 13 34  1  0
 13 35  1  0
 14 36  1  0
 14 37  1  0
 15 38  1  0
 15 39  1  0
 17 40  1  0
 19 41  1  0
 21 42  1  0
 22 43  1  0
M  END
>  <Energy>  (1309) 
-3.2794012559230423

>  <compound_id>  (1309) 
30992

>  <target_id>  (1309) 
1

>  <reference_id>  (1309) 
82

>  <inspiration_ids>  (1309) 
[82, 54]

>  <energy_score>  (1309) 
39.79738477416171

>  <distance_score>  (1309) 
2.510972704906071

>  <path>  (1309) 
/opt/xchem-fragalysis-2/maxwin/BulkDock/SCRATCH/511022/C30992-P82/C30992-P82.minimised.mol

>  <scratch_subdir>  (1309) 
/opt/xchem-fragalysis-2/maxwin/BulkDock/SCRATCH/511022/C30992-P82

>  <fragmenstein_runtime>  (1309) 
7.021605491638184

>  <fragmenstein_outcome>  (1309) 
too moved

>  <fragmenstein_mode>  (1309) 
expansion

>  <fragmenstein_error>  (1309) 


$$$$
C30992-P54
     RDKit          3D

 43 44  0  0  0  0  0  0  0  0999 V2000
  -17.3161  -26.8884   31.4801 C   0  0  0  0  0  0  0  0  0  0  0  0
  -16.1877  -25.9974   32.0273 C   0  0  0  0  0  0  0  0  0  0  0  0
  -16.6357  -25.4212   33.3757 C   0  0  0  0  0  0  0  0  0  0  0  0
  -14.9047  -26.8067   32.0675 C   0  0  0  0  0  0  0  0  0  0  0  0
  -14.4011  -27.4340   33.2043 C   0  0  0  0  0  0  0  0  0  0  0  0
  -13.1487  -28.0408   33.1657 C   0  0  0  0  0  0  0  0  0  0  0  0
  -12.3822  -28.0883   32.0756 N   0  0  0  0  0  0  0  0  0  0  0  0
  -12.9486  -27.6142   30.9646 C   0  0  0  0  0  0  0  0  0  0  0  0
  -12.1650  -27.4906   29.8698 N   0  0  0  0  0  0  0  0  0  0  0  0
  -11.1322  -26.4289   29.5092 C   0  0  0  0  0  0  0  0  0  0  0  0
  -10.7420  -25.5551   30.1105 O   0  0  0  0  0  0  0  0  0  0  0  0
  -10.8345  -26.8495   28.0590 N   0  0  0  0  0  0  0  0  0  0  0  0
  -10.0654  -26.2053   27.0552 C   0  0  0  0  0  0  0  0  0  0  0  0
  -10.9604  -25.4051   26.1345 C   0  0  0  0  0  0  0  0  0  0  0  0
  -12.1096  -24.5887   26.7230 C   0  0  0  0  0  0  0  0  0  0  0  0
  -11.7314  -23.6286   27.7876 C   0  0  0  0  0  0  0  0  0  0  0  0
  -10.6570  -22.7741   27.7493 C   0  0  0  0  0  0  0  0  0  0  0  0
  -10.3125  -21.9496   28.7535 N   0  0  0  0  0  0  0  0  0  0  0  0
  -11.1028  -21.9866   29.8309 C   0  0  0  0  0  0  0  0  0  0  0  0
  -12.2133  -22.7148   29.9439 N   0  0  0  0  0  0  0  0  0  0  0  0
  -12.4882  -23.5351   28.9247 C   0  0  0  0  0  0  0  0  0  0  0  0
  -14.1634  -26.9530   30.9069 C   0  0  0  0  0  0  0  0  0  0  0  0
  -17.0801  -27.2590   30.4762 H   0  0  0  0  0  0  0  0  0  0  0  0
  -18.2550  -26.3278   31.4123 H   0  0  0  0  0  0  0  0  0  0  0  0
  -17.4876  -27.7593   32.1234 H   0  0  0  0  0  0  0  0  0  0  0  0
  -16.0884  -25.1689   31.3213 H   0  0  0  0  0  0  0  0  0  0  0  0
  -16.9380  -26.2093   34.0745 H   0  0  0  0  0  0  0  0  0  0  0  0
  -15.8466  -24.8391   33.8561 H   0  0  0  0  0  0  0  0  0  0  0  0
  -17.4987  -24.7600   33.2387 H   0  0  0  0  0  0  0  0  0  0  0  0
  -14.9473  -27.4261   34.1428 H   0  0  0  0  0  0  0  0  0  0  0  0
  -12.7282  -28.5164   34.0465 H   0  0  0  0  0  0  0  0  0  0  0  0
  -12.3376  -28.0721   29.0783 H   0  0  0  0  0  0  0  0  0  0  0  0
  -11.4110  -27.6299   27.8092 H   0  0  0  0  0  0  0  0  0  0  0  0
   -9.3510  -25.5449   27.5539 H   0  0  0  0  0  0  0  0  0  0  0  0
   -9.5106  -26.9689   26.5042 H   0  0  0  0  0  0  0  0  0  0  0  0
  -11.4120  -26.1287   25.4493 H   0  0  0  0  0  0  0  0  0  0  0  0
  -10.3240  -24.7257   25.5685 H   0  0  0  0  0  0  0  0  0  0  0  0
  -12.8660  -25.2904   27.0997 H   0  0  0  0  0  0  0  0  0  0  0  0
  -12.6139  -24.0211   25.9327 H   0  0  0  0  0  0  0  0  0  0  0  0
   -9.9976  -22.7388   26.8920 H   0  0  0  0  0  0  0  0  0  0  0  0
  -10.8373  -21.3588   30.6732 H   0  0  0  0  0  0  0  0  0  0  0  0
  -13.3710  -24.1493   29.0578 H   0  0  0  0  0  0  0  0  0  0  0  0
  -14.5030  -26.5046   29.9783 H   0  0  0  0  0  0  0  0  0  0  0  0
  1  2  1  0
  2  3  1  0
  2  4  1  0
  4  5  2  0
  5  6  1  0
  6  7  2  0
  7  8  1  0
  8  9  1  0
  9 10  1  0
 10 11  2  0
 10 12  1  0
 12 13  1  0
 13 14  1  0
 14 15  1  0
 15 16  1  0
 16 17  2  0
 17 18  1  0
 18 19  2  0
 19 20  1  0
 20 21  2  0
  8 22  2  0
 22  4  1  0
 21 16  1  0
  1 23  1  0
  1 24  1  0
  1 25  1  0
  2 26  1  0
  3 27  1  0
  3 28  1  0
  3 29  1  0
  5 30  1  0
  6 31  1  0
  9 32  1  0
 12 33  1  0
 13 34  1  0
 13 35  1  0
 14 36  1  0
 14 37  1  0
 15 38  1  0
 15 39  1  0
 17 40  1  0
 19 41  1  0
 21 42  1  0
 22 43  1  0
M  END
>  <Energy>  (1310) 
-18.809975608779233

>  <compound_id>  (1310) 
30992

>  <target_id>  (1310) 
1

>  <reference_id>  (1310) 
54

>  <inspiration_ids>  (1310) 
[82, 54]

>  <energy_score>  (1310) 
24.266810421305774

>  <distance_score>  (1310) 
3.7043664852561724

>  <path>  (1310) 
/opt/xchem-fragalysis-2/maxwin/BulkDock/SCRATCH/511022/C30992-P54/C30992-P54.minimised.mol

>  <scratch_subdir>  (1310) 
/opt/xchem-fragalysis-2/maxwin/BulkDock/SCRATCH/511022/C30992-P54

>  <fragmenstein_runtime>  (1310) 
6.157466650009155

>  <fragmenstein_outcome>  (1310) 
too moved

>  <fragmenstein_mode>  (1310) 
expansion

>  <fragmenstein_error>  (1310) 


$$$$
C69285-P82
     RDKit          3D

 38 39  0  0  0  0  0  0  0  0999 V2000
  -10.3136  -24.5551   28.0211 C   0  0  0  0  0  0  0  0  0  0  0  0
  -11.7768  -24.4573   28.2818 N   0  0  0  0  0  0  0  0  0  0  0  0
  -11.8318  -25.3425   27.0958 C   0  0  0  0  0  0  0  0  0  0  0  0
  -11.8133  -26.8115   27.6210 C   0  0  0  0  0  0  0  0  0  0  0  0
  -11.0303  -26.9205   28.8683 N   0  0  0  0  0  0  0  0  0  0  0  0
  -11.2878  -26.4407   30.1649 C   0  0  0  0  0  0  0  0  0  0  0  0
  -12.2356  -25.8934   30.6105 O   0  0  0  0  0  0  0  0  0  0  0  0
  -10.1830  -26.7320   31.1415 C   0  0  0  0  0  0  0  0  0  0  0  0
   -9.9614  -25.5577   31.9881 C   0  0  0  0  0  0  0  0  0  0  0  0
   -9.7852  -24.6158   32.6420 N   0  0  0  0  0  0  0  0  0  0  0  0
  -12.1396  -23.1371   28.4427 C   0  0  0  0  0  0  0  0  0  0  0  0
  -12.5096  -22.3341   27.6478 O   0  0  0  0  0  0  0  0  0  0  0  0
  -12.1362  -22.7539   29.8656 C   0  0  0  0  0  0  0  0  0  0  0  0
  -12.8559  -23.3828   30.8707 C   0  0  0  0  0  0  0  0  0  0  0  0
  -12.8854  -22.9192   32.1726 C   0  0  0  0  0  0  0  0  0  0  0  0
  -12.1481  -21.7933   32.4348 C   0  0  0  0  0  0  0  0  0  0  0  0
  -12.5012  -20.9935   33.5491 N   0  0  0  0  0  0  0  0  0  0  0  0
  -13.7856  -20.8180   34.0146 C   0  0  0  0  0  0  0  0  0  0  0  0
  -13.8728  -19.7180   34.7332 N   0  0  0  0  0  0  0  0  0  0  0  0
  -12.5920  -19.2571   34.7201 C   0  0  0  0  0  0  0  0  0  0  0  0
  -11.7492  -19.9562   33.9696 N   0  0  0  0  0  0  0  0  0  0  0  0
  -11.3525  -21.2133   31.4984 N   0  0  0  0  0  0  0  0  0  0  0  0
  -11.4482  -21.6515   30.2249 C   0  0  0  0  0  0  0  0  0  0  0  0
   -9.8175  -25.4515   27.6243 H   0  0  0  0  0  0  0  0  0  0  0  0
   -9.8763  -24.4779   29.0174 H   0  0  0  0  0  0  0  0  0  0  0  0
   -9.9829  -23.6833   27.4548 H   0  0  0  0  0  0  0  0  0  0  0  0
  -11.2228  -25.1179   26.2003 H   0  0  0  0  0  0  0  0  0  0  0  0
  -12.8447  -25.1869   26.6923 H   0  0  0  0  0  0  0  0  0  0  0  0
  -12.8316  -27.1299   27.8500 H   0  0  0  0  0  0  0  0  0  0  0  0
  -11.4094  -27.4818   26.8589 H   0  0  0  0  0  0  0  0  0  0  0  0
  -10.0904  -27.2540   28.8278 H   0  0  0  0  0  0  0  0  0  0  0  0
   -9.2828  -27.0553   30.6440 H   0  0  0  0  0  0  0  0  0  0  0  0
  -10.5265  -27.5849   31.7264 H   0  0  0  0  0  0  0  0  0  0  0  0
  -13.4845  -24.2248   30.6388 H   0  0  0  0  0  0  0  0  0  0  0  0
  -13.5165  -23.4140   32.9021 H   0  0  0  0  0  0  0  0  0  0  0  0
  -14.6044  -21.4773   33.7627 H   0  0  0  0  0  0  0  0  0  0  0  0
  -12.2694  -18.3612   35.2353 H   0  0  0  0  0  0  0  0  0  0  0  0
  -10.8988  -21.0985   29.4812 H   0  0  0  0  0  0  0  0  0  0  0  0
  1  2  1  0
  2  3  1  0
  3  4  1  0
  4  5  1  0
  5  6  1  0
  6  7  2  0
  6  8  1  0
  8  9  1  0
  9 10  3  0
  2 11  1  0
 11 12  2  0
 11 13  1  0
 13 14  2  0
 14 15  1  0
 15 16  2  0
 16 17  1  0
 17 18  1  0
 18 19  2  0
 19 20  1  0
 20 21  2  0
 16 22  1  0
 22 23  2  0
 23 13  1  0
 21 17  1  0
  1 24  1  0
  1 25  1  0
  1 26  1  0
  3 27  1  0
  3 28  1  0
  4 29  1  0
  4 30  1  0
  5 31  1  0
  8 32  1  0
  8 33  1  0
 14 34  1  0
 15 35  1  0
 18 36  1  0
 20 37  1  0
 23 38  1  0
M  END
>  <Energy>  (1311) 
195.05752811936287

>  <compound_id>  (1311) 
69285

>  <target_id>  (1311) 
1

>  <reference_id>  (1311) 
82

>  <inspiration_ids>  (1311) 
[82, 54]

>  <energy_score>  (1311) 
76.93963161439777

>  <distance_score>  (1311) 
3.6536128136447137

>  <path>  (1311) 
/opt/xchem-fragalysis-2/maxwin/BulkDock/SCRATCH/511022/C69285-P82/C69285-P82.minimised.mol

>  <scratch_subdir>  (1311) 
/opt/xchem-fragalysis-2/maxwin/BulkDock/SCRATCH/511022/C69285-P82

>  <fragmenstein_runtime>  (1311) 
10.979677200317383

>  <fragmenstein_outcome>  (1311) 
too moved

>  <fragmenstein_mode>  (1311) 
expansion

>  <fragmenstein_error>  (1311) 


$$$$
C69285-P54
     RDKit          3D

 38 39  0  0  0  0  0  0  0  0999 V2000
  -11.4960  -26.2586   25.9035 C   0  0  0  0  0  0  0  0  0  0  0  0
  -11.6577  -26.6072   27.3354 N   0  0  0  0  0  0  0  0  0  0  0  0
  -10.1886  -26.8180   27.2267 C   0  0  0  0  0  0  0  0  0  0  0  0
   -9.5117  -25.4773   27.7058 C   0  0  0  0  0  0  0  0  0  0  0  0
   -9.8346  -25.0639   29.0642 N   0  0  0  0  0  0  0  0  0  0  0  0
   -9.2151  -24.0803   29.9293 C   0  0  0  0  0  0  0  0  0  0  0  0
   -8.3327  -23.3034   29.7174 O   0  0  0  0  0  0  0  0  0  0  0  0
   -9.7851  -24.2018   31.3485 C   0  0  0  0  0  0  0  0  0  0  0  0
   -9.7058  -22.9847   32.1544 C   0  0  0  0  0  0  0  0  0  0  0  0
   -9.6925  -22.0769   32.8769 N   0  0  0  0  0  0  0  0  0  0  0  0
  -12.7251  -27.5376   27.4962 C   0  0  0  0  0  0  0  0  0  0  0  0
  -12.7218  -28.7357   27.4948 O   0  0  0  0  0  0  0  0  0  0  0  0
  -13.9934  -26.7288   27.8097 C   0  0  0  0  0  0  0  0  0  0  0  0
  -13.7844  -26.3990   29.1487 C   0  0  0  0  0  0  0  0  0  0  0  0
  -13.1693  -25.1723   29.3925 C   0  0  0  0  0  0  0  0  0  0  0  0
  -13.0987  -24.2012   28.3982 C   0  0  0  0  0  0  0  0  0  0  0  0
  -12.2883  -23.0560   28.6406 N   0  0  0  0  0  0  0  0  0  0  0  0
  -11.7712  -22.1750   27.7326 C   0  0  0  0  0  0  0  0  0  0  0  0
  -11.1793  -21.1815   28.3547 N   0  0  0  0  0  0  0  0  0  0  0  0
  -11.3403  -21.4938   29.6659 C   0  0  0  0  0  0  0  0  0  0  0  0
  -11.9438  -22.6640   29.8910 N   0  0  0  0  0  0  0  0  0  0  0  0
  -13.7158  -24.3801   27.2057 N   0  0  0  0  0  0  0  0  0  0  0  0
  -14.2336  -25.6268   26.9871 C   0  0  0  0  0  0  0  0  0  0  0  0
  -12.4769  -25.9853   25.5204 H   0  0  0  0  0  0  0  0  0  0  0  0
  -11.2652  -27.1286   25.2722 H   0  0  0  0  0  0  0  0  0  0  0  0
  -10.8929  -25.3710   25.7006 H   0  0  0  0  0  0  0  0  0  0  0  0
  -10.0047  -27.5910   27.9837 H   0  0  0  0  0  0  0  0  0  0  0  0
   -9.7089  -27.2674   26.3400 H   0  0  0  0  0  0  0  0  0  0  0  0
   -8.4312  -25.6158   27.6786 H   0  0  0  0  0  0  0  0  0  0  0  0
   -9.7641  -24.6140   27.0905 H   0  0  0  0  0  0  0  0  0  0  0  0
  -10.4977  -25.6071   29.6025 H   0  0  0  0  0  0  0  0  0  0  0  0
  -10.8137  -24.5578   31.3290 H   0  0  0  0  0  0  0  0  0  0  0  0
   -9.2017  -24.9721   31.8590 H   0  0  0  0  0  0  0  0  0  0  0  0
  -13.6746  -27.1934   29.8884 H   0  0  0  0  0  0  0  0  0  0  0  0
  -12.5938  -25.0593   30.2969 H   0  0  0  0  0  0  0  0  0  0  0  0
  -11.8886  -22.2881   26.6638 H   0  0  0  0  0  0  0  0  0  0  0  0
  -10.9997  -20.8591   30.4770 H   0  0  0  0  0  0  0  0  0  0  0  0
  -14.6974  -25.7643   26.0135 H   0  0  0  0  0  0  0  0  0  0  0  0
  1  2  1  0
  2  3  1  0
  3  4  1  0
  4  5  1  0
  5  6  1  0
  6  7  2  0
  6  8  1  0
  8  9  1  0
  9 10  3  0
  2 11  1  0
 11 12  2  0
 11 13  1  0
 13 14  2  0
 14 15  1  0
 15 16  2  0
 16 17  1  0
 17 18  1  0
 18 19  2  0
 19 20  1  0
 20 21  2  0
 16 22  1  0
 22 23  2  0
 23 13  1  0
 21 17  1  0
  1 24  1  0
  1 25  1  0
  1 26  1  0
  3 27  1  0
  3 28  1  0
  4 29  1  0
  4 30  1  0
  5 31  1  0
  8 32  1  0
  8 33  1  0
 14 34  1  0
 15 35  1  0
 18 36  1  0
 20 37  1  0
 23 38  1  0
M  END
>  <Energy>  (1312) 
214.60064743997469

>  <compound_id>  (1312) 
69285

>  <target_id>  (1312) 
1

>  <reference_id>  (1312) 
54

>  <inspiration_ids>  (1312) 
[82, 54]

>  <energy_score>  (1312) 
96.48275093501002

>  <distance_score>  (1312) 
3.753315787171092

>  <path>  (1312) 
/opt/xchem-fragalysis-2/maxwin/BulkDock/SCRATCH/511022/C69285-P54/C69285-P54.minimised.mol

>  <scratch_subdir>  (1312) 
/opt/xchem-fragalysis-2/maxwin/BulkDock/SCRATCH/511022/C69285-P54

>  <fragmenstein_runtime>  (1312) 
12.845331192016602

>  <fragmenstein_outcome>  (1312) 
too moved

>  <fragmenstein_mode>  (1312) 
expansion

>  <fragmenstein_error>  (1312) 


$$$$
C69287-P82
     RDKit          3D

 37 38  0  0  0  0  0  0  0  0999 V2000
  -10.3980  -25.9061   33.0568 C   0  0  0  0  0  0  0  0  0  0  0  0
  -10.8378  -25.8972   31.6756 N   0  0  0  0  0  0  0  0  0  0  0  0
  -10.4211  -26.9893   30.8002 C   0  0  0  0  0  0  0  0  0  0  0  0
  -11.5002  -27.1772   29.7155 C   0  0  0  0  0  0  0  0  0  0  0  0
  -11.4237  -26.4258   28.5357 N   0  0  0  0  0  0  0  0  0  0  0  0
  -12.4176  -26.2978   27.3630 C   0  0  0  0  0  0  0  0  0  0  0  0
  -13.4205  -26.8565   27.1574 O   0  0  0  0  0  0  0  0  0  0  0  0
  -11.8962  -25.1739   26.5058 C   0  0  0  0  0  0  0  0  0  0  0  0
  -12.8581  -24.1864   26.4784 C   0  0  0  0  0  0  0  0  0  0  0  0
  -12.7258  -23.0355   27.1841 N   0  0  0  0  0  0  0  0  0  0  0  0
  -11.5563  -22.8124   27.7755 C   0  0  0  0  0  0  0  0  0  0  0  0
  -10.5322  -23.6880   27.5560 C   0  0  0  0  0  0  0  0  0  0  0  0
  -10.6394  -24.8511   26.8834 N   0  0  0  0  0  0  0  0  0  0  0  0
  -10.5688  -24.5961   31.1194 C   0  0  0  0  0  0  0  0  0  0  0  0
  -11.5788  -23.6261   31.6360 C   0  0  0  0  0  0  0  0  0  0  0  0
  -12.8672  -23.6806   31.1618 C   0  0  0  0  0  0  0  0  0  0  0  0
  -13.8554  -22.9595   31.8118 C   0  0  0  0  0  0  0  0  0  0  0  0
  -13.5327  -22.2124   32.9195 C   0  0  0  0  0  0  0  0  0  0  0  0
  -12.2143  -22.1888   33.3016 C   0  0  0  0  0  0  0  0  0  0  0  0
  -11.2268  -22.8608   32.6817 N   0  0  0  0  0  0  0  0  0  0  0  0
  -10.6358  -26.8500   33.5302 H   0  0  0  0  0  0  0  0  0  0  0  0
   -9.3322  -25.6786   33.1628 H   0  0  0  0  0  0  0  0  0  0  0  0
  -10.9506  -25.1841   33.6656 H   0  0  0  0  0  0  0  0  0  0  0  0
  -10.3980  -27.9178   31.3737 H   0  0  0  0  0  0  0  0  0  0  0  0
   -9.4451  -26.8281   30.3647 H   0  0  0  0  0  0  0  0  0  0  0  0
  -12.3659  -26.6861   30.1249 H   0  0  0  0  0  0  0  0  0  0  0  0
  -11.8268  -28.1840   29.4931 H   0  0  0  0  0  0  0  0  0  0  0  0
  -10.6111  -25.8471   28.3552 H   0  0  0  0  0  0  0  0  0  0  0  0
  -13.8406  -24.3755   26.0636 H   0  0  0  0  0  0  0  0  0  0  0  0
  -11.4477  -21.8979   28.3403 H   0  0  0  0  0  0  0  0  0  0  0  0
   -9.5374  -23.4790   27.8716 H   0  0  0  0  0  0  0  0  0  0  0  0
  -10.6047  -24.5698   30.0348 H   0  0  0  0  0  0  0  0  0  0  0  0
   -9.5591  -24.3095   31.4044 H   0  0  0  0  0  0  0  0  0  0  0  0
  -13.1110  -24.3519   30.3497 H   0  0  0  0  0  0  0  0  0  0  0  0
  -14.8868  -23.0330   31.4827 H   0  0  0  0  0  0  0  0  0  0  0  0
  -14.2888  -21.6707   33.4722 H   0  0  0  0  0  0  0  0  0  0  0  0
  -11.9255  -21.5885   34.1555 H   0  0  0  0  0  0  0  0  0  0  0  0
  1  2  1  0
  2  3  1  0
  3  4  1  0
  4  5  1  0
  5  6  1  0
  6  7  2  0
  6  8  1  0
  8  9  2  0
  9 10  1  0
 10 11  2  0
 11 12  1  0
 12 13  2  0
  2 14  1  0
 14 15  1  0
 15 16  2  0
 16 17  1  0
 17 18  2  0
 18 19  1  0
 19 20  2  0
 13  8  1  0
 20 15  1  0
  1 21  1  0
  1 22  1  0
  1 23  1  0
  3 24  1  0
  3 25  1  0
  4 26  1  0
  4 27  1  0
  5 28  1  0
  9 29  1  0
 11 30  1  0
 12 31  1  0
 14 32  1  0
 14 33  1  0
 16 34  1  0
 17 35  1  0
 18 36  1  0
 19 37  1  0
M  END
>  <Energy>  (1313) 
205.54344104196701

>  <compound_id>  (1313) 
69287

>  <target_id>  (1313) 
1

>  <reference_id>  (1313) 
82

>  <inspiration_ids>  (1313) 
[82, 54]

>  <energy_score>  (1313) 
52.19709980184933

>  <distance_score>  (1313) 
2.549486065585432

>  <path>  (1313) 
/opt/xchem-fragalysis-2/maxwin/BulkDock/SCRATCH/511022/C69287-P82/C69287-P82.minimised.mol

>  <scratch_subdir>  (1313) 
/opt/xchem-fragalysis-2/maxwin/BulkDock/SCRATCH/511022/C69287-P82

>  <fragmenstein_runtime>  (1313) 
3.3212482929229736

>  <fragmenstein_outcome>  (1313) 
too moved

>  <fragmenstein_mode>  (1313) 
expansion

>  <fragmenstein_error>  (1313) 


$$$$
C69287-P54
     RDKit          3D

 37 38  0  0  0  0  0  0  0  0999 V2000
  -13.9197  -27.5940   31.4848 C   0  0  0  0  0  0  0  0  0  0  0  0
  -13.2533  -27.1833   30.2418 N   0  0  0  0  0  0  0  0  0  0  0  0
  -13.5006  -28.2260   29.2020 C   0  0  0  0  0  0  0  0  0  0  0  0
  -13.6830  -27.6788   27.7636 C   0  0  0  0  0  0  0  0  0  0  0  0
  -12.7797  -26.6036   27.4751 N   0  0  0  0  0  0  0  0  0  0  0  0
  -12.9914  -25.3115   26.6780 C   0  0  0  0  0  0  0  0  0  0  0  0
  -13.9076  -24.9472   26.0630 O   0  0  0  0  0  0  0  0  0  0  0  0
  -11.7787  -24.4584   26.9034 C   0  0  0  0  0  0  0  0  0  0  0  0
  -11.9026  -23.0808   26.8770 C   0  0  0  0  0  0  0  0  0  0  0  0
  -10.9948  -22.2764   27.4775 N   0  0  0  0  0  0  0  0  0  0  0  0
   -9.9399  -22.9048   28.0363 C   0  0  0  0  0  0  0  0  0  0  0  0
   -9.7881  -24.2787   28.0195 C   0  0  0  0  0  0  0  0  0  0  0  0
  -10.7053  -25.0977   27.4651 N   0  0  0  0  0  0  0  0  0  0  0  0
  -11.7938  -27.0283   30.4958 C   0  0  0  0  0  0  0  0  0  0  0  0
  -11.3187  -25.6496   30.9540 C   0  0  0  0  0  0  0  0  0  0  0  0
  -11.7674  -24.4814   30.3694 C   0  0  0  0  0  0  0  0  0  0  0  0
  -11.2806  -23.2475   30.8188 C   0  0  0  0  0  0  0  0  0  0  0  0
  -10.2823  -23.2018   31.7770 C   0  0  0  0  0  0  0  0  0  0  0  0
   -9.8321  -24.4021   32.2726 C   0  0  0  0  0  0  0  0  0  0  0  0
  -10.3668  -25.5963   31.9178 N   0  0  0  0  0  0  0  0  0  0  0  0
  -15.0070  -27.5928   31.3493 H   0  0  0  0  0  0  0  0  0  0  0  0
  -13.6120  -28.5956   31.8086 H   0  0  0  0  0  0  0  0  0  0  0  0
  -13.7052  -26.8992   32.2983 H   0  0  0  0  0  0  0  0  0  0  0  0
  -14.4157  -28.7907   29.4271 H   0  0  0  0  0  0  0  0  0  0  0  0
  -12.6913  -28.9688   29.2119 H   0  0  0  0  0  0  0  0  0  0  0  0
  -14.7013  -27.2999   27.6271 H   0  0  0  0  0  0  0  0  0  0  0  0
  -13.5117  -28.4726   27.0307 H   0  0  0  0  0  0  0  0  0  0  0  0
  -11.8245  -26.6342   27.8240 H   0  0  0  0  0  0  0  0  0  0  0  0
  -12.7601  -22.5914   26.4302 H   0  0  0  0  0  0  0  0  0  0  0  0
   -9.2067  -22.2649   28.5008 H   0  0  0  0  0  0  0  0  0  0  0  0
   -8.9223  -24.7477   28.4711 H   0  0  0  0  0  0  0  0  0  0  0  0
  -11.2138  -27.2481   29.5942 H   0  0  0  0  0  0  0  0  0  0  0  0
  -11.4758  -27.7827   31.2262 H   0  0  0  0  0  0  0  0  0  0  0  0
  -12.5391  -24.5126   29.6086 H   0  0  0  0  0  0  0  0  0  0  0  0
  -11.6848  -22.3244   30.4085 H   0  0  0  0  0  0  0  0  0  0  0  0
   -9.8792  -22.2588   32.1255 H   0  0  0  0  0  0  0  0  0  0  0  0
   -9.0416  -24.4474   33.0154 H   0  0  0  0  0  0  0  0  0  0  0  0
  1  2  1  0
  2  3  1  0
  3  4  1  0
  4  5  1  0
  5  6  1  0
  6  7  2  0
  6  8  1  0
  8  9  2  0
  9 10  1  0
 10 11  2  0
 11 12  1  0
 12 13  2  0
  2 14  1  0
 14 15  1  0
 15 16  2  0
 16 17  1  0
 17 18  2  0
 18 19  1  0
 19 20  2  0
 13  8  1  0
 20 15  1  0
  1 21  1  0
  1 22  1  0
  1 23  1  0
  3 24  1  0
  3 25  1  0
  4 26  1  0
  4 27  1  0
  5 28  1  0
  9 29  1  0
 11 30  1  0
 12 31  1  0
 14 32  1  0
 14 33  1  0
 16 34  1  0
 17 35  1  0
 18 36  1  0
 19 37  1  0
M  END
>  <Energy>  (1314) 
160.22126451869184

>  <compound_id>  (1314) 
69287

>  <target_id>  (1314) 
1

>  <reference_id>  (1314) 
54

>  <inspiration_ids>  (1314) 
[82, 54]

>  <energy_score>  (1314) 
6.8749232785751815

>  <distance_score>  (1314) 
2.2569526316072106

>  <path>  (1314) 
/opt/xchem-fragalysis-2/maxwin/BulkDock/SCRATCH/511022/C69287-P54/C69287-P54.minimised.mol

>  <scratch_subdir>  (1314) 
/opt/xchem-fragalysis-2/maxwin/BulkDock/SCRATCH/511022/C69287-P54

>  <fragmenstein_runtime>  (1314) 
3.8502581119537354

>  <fragmenstein_outcome>  (1314) 
too moved

>  <fragmenstein_mode>  (1314) 
expansion

>  <fragmenstein_error>  (1314) 


$$$$
C69288-P82
     RDKit          3D

 37 38  0  0  0  0  0  0  0  0999 V2000
  -11.6988  -21.6675   29.8765 C   0  0  0  0  0  0  0  0  0  0  0  0
  -12.6748  -22.6349   30.2840 N   0  0  0  0  0  0  0  0  0  0  0  0
  -13.0470  -22.6345   31.7357 C   0  0  0  0  0  0  0  0  0  0  0  0
  -11.9476  -22.8381   32.8229 C   0  0  0  0  0  0  0  0  0  0  0  0
  -11.0351  -23.8132   32.3225 N   0  0  0  0  0  0  0  0  0  0  0  0
  -10.5622  -25.0234   32.8860 C   0  0  0  0  0  0  0  0  0  0  0  0
  -10.7397  -25.5058   33.9626 O   0  0  0  0  0  0  0  0  0  0  0  0
   -9.8129  -25.7410   31.7958 C   0  0  0  0  0  0  0  0  0  0  0  0
  -10.4322  -26.9257   31.5022 C   0  0  0  0  0  0  0  0  0  0  0  0
  -10.7824  -27.3185   30.2585 N   0  0  0  0  0  0  0  0  0  0  0  0
  -10.3385  -26.5397   29.2772 C   0  0  0  0  0  0  0  0  0  0  0  0
   -9.5746  -25.4434   29.5248 C   0  0  0  0  0  0  0  0  0  0  0  0
   -9.3508  -24.9807   30.7760 N   0  0  0  0  0  0  0  0  0  0  0  0
  -12.4063  -23.9866   29.7610 C   0  0  0  0  0  0  0  0  0  0  0  0
  -12.4903  -24.3920   28.2821 C   0  0  0  0  0  0  0  0  0  0  0  0
  -11.9109  -23.6864   27.2390 C   0  0  0  0  0  0  0  0  0  0  0  0
  -11.7269  -24.3358   26.0152 C   0  0  0  0  0  0  0  0  0  0  0  0
  -12.1296  -25.6494   25.8671 C   0  0  0  0  0  0  0  0  0  0  0  0
  -11.8066  -26.3624   24.7878 F   0  0  0  0  0  0  0  0  0  0  0  0
  -12.8087  -26.2493   26.8836 C   0  0  0  0  0  0  0  0  0  0  0  0
  -12.9840  -25.6496   28.0682 N   0  0  0  0  0  0  0  0  0  0  0  0
  -10.8911  -22.0837   29.2780 H   0  0  0  0  0  0  0  0  0  0  0  0
  -11.2458  -21.1548   30.7238 H   0  0  0  0  0  0  0  0  0  0  0  0
  -12.1831  -20.9464   29.2238 H   0  0  0  0  0  0  0  0  0  0  0  0
  -13.5706  -21.6996   31.9608 H   0  0  0  0  0  0  0  0  0  0  0  0
  -13.8109  -23.4081   31.8856 H   0  0  0  0  0  0  0  0  0  0  0  0
  -12.3779  -23.1708   33.7686 H   0  0  0  0  0  0  0  0  0  0  0  0
  -11.4207  -21.8948   32.9542 H   0  0  0  0  0  0  0  0  0  0  0  0
  -10.6155  -23.6883   31.4179 H   0  0  0  0  0  0  0  0  0  0  0  0
  -10.7878  -27.5424   32.3079 H   0  0  0  0  0  0  0  0  0  0  0  0
  -10.6198  -26.7969   28.2718 H   0  0  0  0  0  0  0  0  0  0  0  0
   -9.2193  -24.8496   28.7045 H   0  0  0  0  0  0  0  0  0  0  0  0
  -12.9552  -24.7293   30.3411 H   0  0  0  0  0  0  0  0  0  0  0  0
  -11.3788  -24.1722   29.9496 H   0  0  0  0  0  0  0  0  0  0  0  0
  -11.5629  -22.6695   27.3573 H   0  0  0  0  0  0  0  0  0  0  0  0
  -11.2446  -23.8393   25.1824 H   0  0  0  0  0  0  0  0  0  0  0  0
  -13.1678  -27.2680   26.7997 H   0  0  0  0  0  0  0  0  0  0  0  0
  1  2  1  0
  2  3  1  0
  3  4  1  0
  4  5  1  0
  5  6  1  0
  6  7  2  0
  6  8  1  0
  8  9  2  0
  9 10  1  0
 10 11  2  0
 11 12  1  0
 12 13  2  0
  2 14  1  0
 14 15  1  0
 15 16  2  0
 16 17  1  0
 17 18  2  0
 18 19  1  0
 18 20  1  0
 20 21  2  0
 13  8  1  0
 21 15  1  0
  1 22  1  0
  1 23  1  0
  1 24  1  0
  3 25  1  0
  3 26  1  0
  4 27  1  0
  4 28  1  0
  5 29  1  0
  9 30  1  0
 11 31  1  0
 12 32  1  0
 14 33  1  0
 14 34  1  0
 16 35  1  0
 17 36  1  0
 20 37  1  0
M  END
>  <Energy>  (1315) 
207.32814753994086

>  <compound_id>  (1315) 
69288

>  <target_id>  (1315) 
1

>  <reference_id>  (1315) 
82

>  <inspiration_ids>  (1315) 
[82, 54]

>  <energy_score>  (1315) 
31.724863496290425

>  <distance_score>  (1315) 
2.9511650385026402

>  <path>  (1315) 
/opt/xchem-fragalysis-2/maxwin/BulkDock/SCRATCH/511022/C69288-P82/C69288-P82.minimised.mol

>  <scratch_subdir>  (1315) 
/opt/xchem-fragalysis-2/maxwin/BulkDock/SCRATCH/511022/C69288-P82

>  <fragmenstein_runtime>  (1315) 
8.679564237594604

>  <fragmenstein_outcome>  (1315) 
too moved

>  <fragmenstein_mode>  (1315) 
expansion

>  <fragmenstein_error>  (1315) 


$$$$
C69288-P54
     RDKit          3D

 37 38  0  0  0  0  0  0  0  0999 V2000
  -11.3954  -19.9392   32.2120 C   0  0  0  0  0  0  0  0  0  0  0  0
  -10.9922  -21.3188   32.3744 N   0  0  0  0  0  0  0  0  0  0  0  0
   -9.8259  -21.5111   33.2853 C   0  0  0  0  0  0  0  0  0  0  0  0
   -8.8436  -22.7610   33.1580 C   0  0  0  0  0  0  0  0  0  0  0  0
   -9.5289  -23.9250   32.6511 N   0  0  0  0  0  0  0  0  0  0  0  0
   -9.5297  -24.5583   31.2266 C   0  0  0  0  0  0  0  0  0  0  0  0
   -8.9144  -24.2767   30.2716 O   0  0  0  0  0  0  0  0  0  0  0  0
  -10.5788  -25.6483   31.0507 C   0  0  0  0  0  0  0  0  0  0  0  0
  -11.2099  -26.3148   32.0755 C   0  0  0  0  0  0  0  0  0  0  0  0
  -12.3314  -27.0544   31.9257 N   0  0  0  0  0  0  0  0  0  0  0  0
  -12.7166  -27.2578   30.6539 C   0  0  0  0  0  0  0  0  0  0  0  0
  -12.0208  -26.7245   29.5968 C   0  0  0  0  0  0  0  0  0  0  0  0
  -10.9759  -25.8922   29.7786 N   0  0  0  0  0  0  0  0  0  0  0  0
  -10.8590  -22.0852   31.1562 C   0  0  0  0  0  0  0  0  0  0  0  0
  -11.6027  -22.0074   29.8425 C   0  0  0  0  0  0  0  0  0  0  0  0
  -12.1641  -23.2094   29.3763 C   0  0  0  0  0  0  0  0  0  0  0  0
  -12.2034  -23.5247   28.0281 C   0  0  0  0  0  0  0  0  0  0  0  0
  -11.7296  -22.5884   27.1557 C   0  0  0  0  0  0  0  0  0  0  0  0
  -11.7116  -22.8629   25.8477 F   0  0  0  0  0  0  0  0  0  0  0  0
  -11.3319  -21.3631   27.6717 C   0  0  0  0  0  0  0  0  0  0  0  0
  -11.2573  -21.0350   28.9876 N   0  0  0  0  0  0  0  0  0  0  0  0
  -11.5477  -19.4670   33.1891 H   0  0  0  0  0  0  0  0  0  0  0  0
  -12.3564  -19.8800   31.6910 H   0  0  0  0  0  0  0  0  0  0  0  0
  -10.6711  -19.3387   31.6581 H   0  0  0  0  0  0  0  0  0  0  0  0
   -9.1789  -20.6287   33.2350 H   0  0  0  0  0  0  0  0  0  0  0  0
  -10.2426  -21.5417   34.2997 H   0  0  0  0  0  0  0  0  0  0  0  0
   -8.4172  -23.0020   34.1337 H   0  0  0  0  0  0  0  0  0  0  0  0
   -8.0413  -22.5198   32.4575 H   0  0  0  0  0  0  0  0  0  0  0  0
  -10.1158  -24.4603   33.2547 H   0  0  0  0  0  0  0  0  0  0  0  0
  -10.7913  -26.3472   33.0695 H   0  0  0  0  0  0  0  0  0  0  0  0
  -13.5823  -27.8946   30.5065 H   0  0  0  0  0  0  0  0  0  0  0  0
  -12.3011  -26.9250   28.5687 H   0  0  0  0  0  0  0  0  0  0  0  0
  -11.2095  -23.0410   31.5226 H   0  0  0  0  0  0  0  0  0  0  0  0
   -9.8122  -22.0838   30.8475 H   0  0  0  0  0  0  0  0  0  0  0  0
  -12.4383  -23.9785   30.0742 H   0  0  0  0  0  0  0  0  0  0  0  0
  -12.5558  -24.4812   27.6689 H   0  0  0  0  0  0  0  0  0  0  0  0
  -11.0767  -20.5519   27.0105 H   0  0  0  0  0  0  0  0  0  0  0  0
  1  2  1  0
  2  3  1  0
  3  4  1  0
  4  5  1  0
  5  6  1  0
  6  7  2  0
  6  8  1  0
  8  9  2  0
  9 10  1  0
 10 11  2  0
 11 12  1  0
 12 13  2  0
  2 14  1  0
 14 15  1  0
 15 16  2  0
 16 17  1  0
 17 18  2  0
 18 19  1  0
 18 20  1  0
 20 21  2  0
 13  8  1  0
 21 15  1  0
  1 22  1  0
  1 23  1  0
  1 24  1  0
  3 25  1  0
  3 26  1  0
  4 27  1  0
  4 28  1  0
  5 29  1  0
  9 30  1  0
 11 31  1  0
 12 32  1  0
 14 33  1  0
 14 34  1  0
 16 35  1  0
 17 36  1  0
 20 37  1  0
M  END
>  <Energy>  (1316) 
226.8992999192694

>  <compound_id>  (1316) 
69288

>  <target_id>  (1316) 
1

>  <reference_id>  (1316) 
54

>  <inspiration_ids>  (1316) 
[82, 54]

>  <energy_score>  (1316) 
53.185985554061006

>  <distance_score>  (1316) 
1.9933679281479526

>  <path>  (1316) 
/opt/xchem-fragalysis-2/maxwin/BulkDock/SCRATCH/511022/C69288-P54/C69288-P54.minimised.mol

>  <scratch_subdir>  (1316) 
/opt/xchem-fragalysis-2/maxwin/BulkDock/SCRATCH/511022/C69288-P54

>  <fragmenstein_runtime>  (1316) 
5.220017433166504

>  <fragmenstein_outcome>  (1316) 
too moved

>  <fragmenstein_mode>  (1316) 
expansion

>  <fragmenstein_error>  (1316) 


$$$$
C69252-P82
     RDKit          3D

 17 18  0  0  0  0  0  0  0  0999 V2000
  -10.5710  -25.9627   31.8195 C   0  0  0  0  0  0  0  0  0  0  0  0
  -10.9430  -25.5707   30.5638 C   0  0  0  0  0  0  0  0  0  0  0  0
  -11.6123  -24.3667   30.4571 C   0  0  0  0  0  0  0  0  0  0  0  0
  -11.8421  -23.8825   29.1595 N   0  0  0  0  0  0  0  0  0  0  0  0
  -11.8788  -22.5479   28.9072 N   0  0  0  0  0  0  0  0  0  0  0  0
  -11.7955  -22.5382   27.5789 C   0  0  0  0  0  0  0  0  0  0  0  0
  -11.7562  -23.8256   27.0583 C   0  0  0  0  0  0  0  0  0  0  0  0
  -11.7425  -24.7001   28.0559 N   0  0  0  0  0  0  0  0  0  0  0  0
  -11.9466  -23.6362   31.5987 C   0  0  0  0  0  0  0  0  0  0  0  0
  -11.5739  -24.1632   32.8217 C   0  0  0  0  0  0  0  0  0  0  0  0
  -10.8528  -25.2947   32.9550 N   0  0  0  0  0  0  0  0  0  0  0  0
  -10.0456  -26.8939   31.9136 H   0  0  0  0  0  0  0  0  0  0  0  0
  -10.6624  -26.1764   29.7097 H   0  0  0  0  0  0  0  0  0  0  0  0
  -11.7612  -21.6115   27.0424 H   0  0  0  0  0  0  0  0  0  0  0  0
  -11.7062  -24.1549   26.0305 H   0  0  0  0  0  0  0  0  0  0  0  0
  -12.4995  -22.7064   31.5398 H   0  0  0  0  0  0  0  0  0  0  0  0
  -11.8482  -23.6733   33.7516 H   0  0  0  0  0  0  0  0  0  0  0  0
  1  2  2  0
  2  3  1  0
  3  4  1  0
  4  5  1  0
  5  6  2  0
  6  7  1  0
  7  8  2  0
  3  9  2  0
  9 10  1  0
 10 11  2  0
 11  1  1  0
  8  4  1  0
  1 12  1  0
  2 13  1  0
  6 14  1  0
  7 15  1  0
  9 16  1  0
 10 17  1  0
M  END
>  <Energy>  (1317) 
35.611486199712971

>  <compound_id>  (1317) 
69252

>  <target_id>  (1317) 
1

>  <reference_id>  (1317) 
82

>  <inspiration_ids>  (1317) 
[82, 54]

>  <energy_score>  (1317) 
-31.468505375518887

>  <distance_score>  (1317) 
1.3946025913510953

>  <path>  (1317) 
/opt/xchem-fragalysis-2/maxwin/BulkDock/SCRATCH/511022/C69252-P82/C69252-P82.minimised.mol

>  <scratch_subdir>  (1317) 
/opt/xchem-fragalysis-2/maxwin/BulkDock/SCRATCH/511022/C69252-P82

>  <fragmenstein_runtime>  (1317) 
1.278200626373291

>  <fragmenstein_outcome>  (1317) 
too moved

>  <fragmenstein_mode>  (1317) 
expansion

>  <fragmenstein_error>  (1317) 


$$$$
C69252-P54
     RDKit          3D

 17 18  0  0  0  0  0  0  0  0999 V2000
  -11.7234  -26.3873   30.8601 C   0  0  0  0  0  0  0  0  0  0  0  0
  -11.8850  -25.5305   29.8014 C   0  0  0  0  0  0  0  0  0  0  0  0
  -11.2383  -24.2972   29.8722 C   0  0  0  0  0  0  0  0  0  0  0  0
  -11.3715  -23.3923   28.8079 N   0  0  0  0  0  0  0  0  0  0  0  0
  -10.9344  -22.1163   28.9094 N   0  0  0  0  0  0  0  0  0  0  0  0
  -11.2334  -21.6301   27.7091 C   0  0  0  0  0  0  0  0  0  0  0  0
  -11.7994  -22.6273   26.9107 C   0  0  0  0  0  0  0  0  0  0  0  0
  -11.9210  -23.7532   27.6128 N   0  0  0  0  0  0  0  0  0  0  0  0
  -10.4181  -23.9699   30.9513 C   0  0  0  0  0  0  0  0  0  0  0  0
  -10.2531  -24.9291   31.9128 C   0  0  0  0  0  0  0  0  0  0  0  0
  -10.9502  -26.0957   31.9231 N   0  0  0  0  0  0  0  0  0  0  0  0
  -12.2123  -27.3571   30.8859 H   0  0  0  0  0  0  0  0  0  0  0  0
  -12.5088  -25.8132   28.9595 H   0  0  0  0  0  0  0  0  0  0  0  0
  -11.0295  -20.5935   27.4844 H   0  0  0  0  0  0  0  0  0  0  0  0
  -12.1494  -22.5695   25.8890 H   0  0  0  0  0  0  0  0  0  0  0  0
   -9.8787  -23.0308   31.0138 H   0  0  0  0  0  0  0  0  0  0  0  0
   -9.5798  -24.7754   32.7518 H   0  0  0  0  0  0  0  0  0  0  0  0
  1  2  2  0
  2  3  1  0
  3  4  1  0
  4  5  1  0
  5  6  2  0
  6  7  1  0
  7  8  2  0
  3  9  2  0
  9 10  1  0
 10 11  2  0
 11  1  1  0
  8  4  1  0
  1 12  1  0
  2 13  1  0
  6 14  1  0
  7 15  1  0
  9 16  1  0
 10 17  1  0
M  END
>  <Energy>  (1318) 
31.258384605980581

>  <compound_id>  (1318) 
69252

>  <target_id>  (1318) 
1

>  <reference_id>  (1318) 
54

>  <inspiration_ids>  (1318) 
[82, 54]

>  <energy_score>  (1318) 
-35.82160696925146

>  <distance_score>  (1318) 
1.6706412743151726

>  <path>  (1318) 
/opt/xchem-fragalysis-2/maxwin/BulkDock/SCRATCH/511022/C69252-P54/C69252-P54.minimised.mol

>  <scratch_subdir>  (1318) 
/opt/xchem-fragalysis-2/maxwin/BulkDock/SCRATCH/511022/C69252-P54

>  <fragmenstein_runtime>  (1318) 
0.9977233409881592

>  <fragmenstein_outcome>  (1318) 
too moved

>  <fragmenstein_mode>  (1318) 
expansion

>  <fragmenstein_error>  (1318) 


$$$$
C69254-P82
     RDKit          3D

 17 18  0  0  0  0  0  0  0  0999 V2000
  -11.6913  -24.4139   33.2080 C   0  0  0  0  0  0  0  0  0  0  0  0
  -12.4926  -23.4714   32.5844 C   0  0  0  0  0  0  0  0  0  0  0  0
  -12.4384  -23.3470   31.2067 C   0  0  0  0  0  0  0  0  0  0  0  0
  -11.5888  -24.1854   30.4993 C   0  0  0  0  0  0  0  0  0  0  0  0
  -11.5082  -24.0350   29.0973 N   0  0  0  0  0  0  0  0  0  0  0  0
  -10.7855  -24.8200   28.2452 C   0  0  0  0  0  0  0  0  0  0  0  0
  -10.9191  -24.3973   27.0129 N   0  0  0  0  0  0  0  0  0  0  0  0
  -11.7368  -23.3226   27.1580 C   0  0  0  0  0  0  0  0  0  0  0  0
  -12.0811  -23.0226   28.4026 N   0  0  0  0  0  0  0  0  0  0  0  0
  -10.7904  -25.1180   31.0930 N   0  0  0  0  0  0  0  0  0  0  0  0
  -10.8617  -25.2042   32.4353 C   0  0  0  0  0  0  0  0  0  0  0  0
  -11.7296  -24.5414   34.2803 H   0  0  0  0  0  0  0  0  0  0  0  0
  -13.1704  -22.8563   33.1678 H   0  0  0  0  0  0  0  0  0  0  0  0
  -13.0762  -22.6279   30.7052 H   0  0  0  0  0  0  0  0  0  0  0  0
  -10.2048  -25.6671   28.5837 H   0  0  0  0  0  0  0  0  0  0  0  0
  -12.0873  -22.7330   26.3214 H   0  0  0  0  0  0  0  0  0  0  0  0
  -10.2251  -25.9568   32.8861 H   0  0  0  0  0  0  0  0  0  0  0  0
  1  2  2  0
  2  3  1  0
  3  4  2  0
  4  5  1  0
  5  6  1  0
  6  7  2  0
  7  8  1  0
  8  9  2  0
  4 10  1  0
 10 11  2  0
 11  1  1  0
  9  5  1  0
  1 12  1  0
  2 13  1  0
  3 14  1  0
  6 15  1  0
  8 16  1  0
 11 17  1  0
M  END
>  <Energy>  (1319) 
58.630076684512076

>  <compound_id>  (1319) 
69254

>  <target_id>  (1319) 
1

>  <reference_id>  (1319) 
82

>  <inspiration_ids>  (1319) 
[82, 54]

>  <energy_score>  (1319) 
-24.83323235850149

>  <distance_score>  (1319) 
2.299578619589105

>  <path>  (1319) 
/opt/xchem-fragalysis-2/maxwin/BulkDock/SCRATCH/511022/C69254-P82/C69254-P82.minimised.mol

>  <scratch_subdir>  (1319) 
/opt/xchem-fragalysis-2/maxwin/BulkDock/SCRATCH/511022/C69254-P82

>  <fragmenstein_runtime>  (1319) 
1.530747652053833

>  <fragmenstein_outcome>  (1319) 
too moved

>  <fragmenstein_mode>  (1319) 
expansion

>  <fragmenstein_error>  (1319) 


$$$$
C69254-P54
     RDKit          3D

 17 18  0  0  0  0  0  0  0  0999 V2000
   -9.7561  -23.2299   33.1275 C   0  0  0  0  0  0  0  0  0  0  0  0
  -10.5031  -22.2177   32.5487 C   0  0  0  0  0  0  0  0  0  0  0  0
  -10.9729  -22.3687   31.2496 C   0  0  0  0  0  0  0  0  0  0  0  0
  -10.7093  -23.5525   30.5707 C   0  0  0  0  0  0  0  0  0  0  0  0
  -11.0706  -23.6439   29.1977 N   0  0  0  0  0  0  0  0  0  0  0  0
  -11.4388  -22.6221   28.3564 C   0  0  0  0  0  0  0  0  0  0  0  0
  -11.7103  -23.0894   27.1647 N   0  0  0  0  0  0  0  0  0  0  0  0
  -11.4589  -24.4160   27.3017 C   0  0  0  0  0  0  0  0  0  0  0  0
  -11.0556  -24.8092   28.5030 N   0  0  0  0  0  0  0  0  0  0  0  0
  -10.0668  -24.5956   31.1645 N   0  0  0  0  0  0  0  0  0  0  0  0
   -9.5673  -24.3912   32.4039 C   0  0  0  0  0  0  0  0  0  0  0  0
   -9.3455  -23.1221   34.1242 H   0  0  0  0  0  0  0  0  0  0  0  0
  -10.7115  -21.3055   33.1027 H   0  0  0  0  0  0  0  0  0  0  0  0
  -11.5424  -21.5514   30.8221 H   0  0  0  0  0  0  0  0  0  0  0  0
  -11.4705  -21.5798   28.6375 H   0  0  0  0  0  0  0  0  0  0  0  0
  -11.5739  -25.1263   26.4930 H   0  0  0  0  0  0  0  0  0  0  0  0
   -8.9919  -25.2104   32.8213 H   0  0  0  0  0  0  0  0  0  0  0  0
  1  2  2  0
  2  3  1  0
  3  4  2  0
  4  5  1  0
  5  6  1  0
  6  7  2  0
  7  8  1  0
  8  9  2  0
  4 10  1  0
 10 11  2  0
 11  1  1  0
  9  5  1  0
  1 12  1  0
  2 13  1  0
  3 14  1  0
  6 15  1  0
  8 16  1  0
 11 17  1  0
M  END
>  <Energy>  (1320) 
69.831881841860934

>  <compound_id>  (1320) 
69254

>  <target_id>  (1320) 
1

>  <reference_id>  (1320) 
54

>  <inspiration_ids>  (1320) 
[82, 54]

>  <energy_score>  (1320) 
-13.631427201152576

>  <distance_score>  (1320) 
2.4567021330192254

>  <path>  (1320) 
/opt/xchem-fragalysis-2/maxwin/BulkDock/SCRATCH/511022/C69254-P54/C69254-P54.minimised.mol

>  <scratch_subdir>  (1320) 
/opt/xchem-fragalysis-2/maxwin/BulkDock/SCRATCH/511022/C69254-P54

>  <fragmenstein_runtime>  (1320) 
1.233872413635254

>  <fragmenstein_outcome>  (1320) 
too moved

>  <fragmenstein_mode>  (1320) 
expansion

>  <fragmenstein_error>  (1320) 


$$$$
C69257-P82
     RDKit          3D

 17 18  0  0  0  0  0  0  0  0999 V2000
  -10.3372  -26.1512   31.6505 C   0  0  0  0  0  0  0  0  0  0  0  0
  -10.7915  -25.5520   30.5129 C   0  0  0  0  0  0  0  0  0  0  0  0
  -11.5534  -24.4145   30.6832 C   0  0  0  0  0  0  0  0  0  0  0  0
  -11.8029  -23.6567   29.5391 N   0  0  0  0  0  0  0  0  0  0  0  0
  -12.0020  -22.3127   29.5105 C   0  0  0  0  0  0  0  0  0  0  0  0
  -12.0197  -21.8930   28.2755 N   0  0  0  0  0  0  0  0  0  0  0  0
  -11.8355  -23.0297   27.5548 C   0  0  0  0  0  0  0  0  0  0  0  0
  -11.6174  -24.1261   28.2761 N   0  0  0  0  0  0  0  0  0  0  0  0
  -11.9306  -23.9754   31.9562 C   0  0  0  0  0  0  0  0  0  0  0  0
  -11.4648  -24.6934   33.0330 C   0  0  0  0  0  0  0  0  0  0  0  0
  -10.6380  -25.7453   32.9065 N   0  0  0  0  0  0  0  0  0  0  0  0
   -9.6963  -27.0134   31.5372 H   0  0  0  0  0  0  0  0  0  0  0  0
  -10.4813  -25.9280   29.5447 H   0  0  0  0  0  0  0  0  0  0  0  0
  -12.0866  -21.7047   30.3944 H   0  0  0  0  0  0  0  0  0  0  0  0
  -11.8547  -23.0570   26.4732 H   0  0  0  0  0  0  0  0  0  0  0  0
  -12.5837  -23.1285   32.1237 H   0  0  0  0  0  0  0  0  0  0  0  0
  -11.7488  -24.4347   34.0479 H   0  0  0  0  0  0  0  0  0  0  0  0
  1  2  2  0
  2  3  1  0
  3  4  1  0
  4  5  1  0
  5  6  2  0
  6  7  1  0
  7  8  2  0
  3  9  2  0
  9 10  1  0
 10 11  2  0
 11  1  1  0
  8  4  1  0
  1 12  1  0
  2 13  1  0
  5 14  1  0
  7 15  1  0
  9 16  1  0
 10 17  1  0
M  END
>  <Energy>  (1321) 
36.683956034830715

>  <compound_id>  (1321) 
69257

>  <target_id>  (1321) 
1

>  <reference_id>  (1321) 
82

>  <inspiration_ids>  (1321) 
[82, 54]

>  <energy_score>  (1321) 
-19.95555327551589

>  <distance_score>  (1321) 
1.3553219974697757

>  <path>  (1321) 
/opt/xchem-fragalysis-2/maxwin/BulkDock/SCRATCH/511022/C69257-P82/C69257-P82.minimised.mol

>  <scratch_subdir>  (1321) 
/opt/xchem-fragalysis-2/maxwin/BulkDock/SCRATCH/511022/C69257-P82

>  <fragmenstein_runtime>  (1321) 
1.1153106689453125

>  <fragmenstein_outcome>  (1321) 
too moved

>  <fragmenstein_mode>  (1321) 
expansion

>  <fragmenstein_error>  (1321) 


$$$$
C69257-P54
     RDKit          3D

 17 18  0  0  0  0  0  0  0  0999 V2000
  -11.6808  -26.3236   30.9006 C   0  0  0  0  0  0  0  0  0  0  0  0
  -11.7929  -25.3795   29.9135 C   0  0  0  0  0  0  0  0  0  0  0  0
  -11.1203  -24.1713   30.1020 C   0  0  0  0  0  0  0  0  0  0  0  0
  -11.2569  -23.1714   29.1327 N   0  0  0  0  0  0  0  0  0  0  0  0
  -10.9484  -21.8487   29.2453 C   0  0  0  0  0  0  0  0  0  0  0  0
  -11.1455  -21.2473   28.1011 N   0  0  0  0  0  0  0  0  0  0  0  0
  -11.5990  -22.2509   27.3003 C   0  0  0  0  0  0  0  0  0  0  0  0
  -11.7306  -23.4366   27.8937 N   0  0  0  0  0  0  0  0  0  0  0  0
  -10.2892  -23.9682   31.2016 C   0  0  0  0  0  0  0  0  0  0  0  0
  -10.1711  -25.0101   32.0813 C   0  0  0  0  0  0  0  0  0  0  0  0
  -10.9233  -26.1386   31.9979 N   0  0  0  0  0  0  0  0  0  0  0  0
  -12.2024  -27.2747   30.8416 H   0  0  0  0  0  0  0  0  0  0  0  0
  -12.4166  -25.5695   29.0453 H   0  0  0  0  0  0  0  0  0  0  0  0
  -10.6174  -21.3764   30.1572 H   0  0  0  0  0  0  0  0  0  0  0  0
  -11.8631  -22.1080   26.2593 H   0  0  0  0  0  0  0  0  0  0  0  0
   -9.6999  -23.0732   31.3573 H   0  0  0  0  0  0  0  0  0  0  0  0
   -9.4995  -24.9561   32.9339 H   0  0  0  0  0  0  0  0  0  0  0  0
  1  2  2  0
  2  3  1  0
  3  4  1  0
  4  5  1  0
  5  6  2  0
  6  7  1  0
  7  8  2  0
  3  9  2  0
  9 10  1  0
 10 11  2  0
 11  1  1  0
  8  4  1  0
  1 12  1  0
  2 13  1  0
  5 14  1  0
  7 15  1  0
  9 16  1  0
 10 17  1  0
M  END
>  <Energy>  (1322) 
33.782994706873971

>  <compound_id>  (1322) 
69257

>  <target_id>  (1322) 
1

>  <reference_id>  (1322) 
54

>  <inspiration_ids>  (1322) 
[82, 54]

>  <energy_score>  (1322) 
-22.856514603472363

>  <distance_score>  (1322) 
1.5057282421124865

>  <path>  (1322) 
/opt/xchem-fragalysis-2/maxwin/BulkDock/SCRATCH/511022/C69257-P54/C69257-P54.minimised.mol

>  <scratch_subdir>  (1322) 
/opt/xchem-fragalysis-2/maxwin/BulkDock/SCRATCH/511022/C69257-P54

>  <fragmenstein_runtime>  (1322) 
0.9963829517364502

>  <fragmenstein_outcome>  (1322) 
too moved

>  <fragmenstein_mode>  (1322) 
expansion

>  <fragmenstein_error>  (1322) 


$$$$
C69259-P82
     RDKit          3D

 41 42  0  0  0  0  0  0  0  0999 V2000
  -11.7547  -23.9402   27.0304 C   0  0  0  0  0  0  0  0  0  0  0  0
  -11.1303  -22.9556   27.8487 O   0  0  0  0  0  0  0  0  0  0  0  0
  -11.6862  -22.7617   29.0701 C   0  0  0  0  0  0  0  0  0  0  0  0
  -12.4976  -23.6247   29.7305 C   0  0  0  0  0  0  0  0  0  0  0  0
  -13.1522  -23.2830   30.8606 N   0  0  0  0  0  0  0  0  0  0  0  0
  -12.8107  -22.1580   31.4956 C   0  0  0  0  0  0  0  0  0  0  0  0
  -11.7149  -21.4590   31.1372 C   0  0  0  0  0  0  0  0  0  0  0  0
  -10.9051  -20.9925   32.3410 C   0  0  0  0  0  0  0  0  0  0  0  0
  -11.4147  -20.4235   33.2658 O   0  0  0  0  0  0  0  0  0  0  0  0
   -9.5573  -21.4534   32.1535 N   0  0  0  0  0  0  0  0  0  0  0  0
   -8.0652  -21.2303   33.1811 C   0  0  0  0  0  0  0  0  0  0  0  0
   -9.4126  -23.1408   32.7233 C   0  0  0  0  0  0  0  0  0  0  0  0
  -10.1428  -24.3488   32.0153 C   0  0  0  0  0  0  0  0  0  0  0  0
  -11.4895  -24.6208   32.5278 N   0  0  0  0  0  0  0  0  0  0  0  0
  -12.2656  -23.9615   33.5785 C   0  0  0  0  0  0  0  0  0  0  0  0
  -11.9652  -23.0906   34.3325 O   0  0  0  0  0  0  0  0  0  0  0  0
  -13.6629  -24.4581   33.5641 C   0  0  0  0  0  0  0  0  0  0  0  0
  -14.8006  -23.7073   34.0642 N   0  0  0  0  0  0  0  0  0  0  0  0
  -15.0387  -22.4072   33.7558 N   0  0  0  0  0  0  0  0  0  0  0  0
  -16.3365  -22.2890   34.0289 C   0  0  0  0  0  0  0  0  0  0  0  0
  -16.8525  -23.5155   34.4447 C   0  0  0  0  0  0  0  0  0  0  0  0
  -15.8896  -24.4355   34.4515 N   0  0  0  0  0  0  0  0  0  0  0  0
  -11.3091  -21.6527   29.8118 C   0  0  0  0  0  0  0  0  0  0  0  0
  -12.8220  -23.7366   26.9041 H   0  0  0  0  0  0  0  0  0  0  0  0
  -11.2939  -23.9092   26.0397 H   0  0  0  0  0  0  0  0  0  0  0  0
  -11.5887  -24.9452   27.4319 H   0  0  0  0  0  0  0  0  0  0  0  0
  -12.7410  -24.6125   29.3604 H   0  0  0  0  0  0  0  0  0  0  0  0
  -13.3189  -21.9231   32.4155 H   0  0  0  0  0  0  0  0  0  0  0  0
   -7.0756  -21.0937   32.7210 H   0  0  0  0  0  0  0  0  0  0  0  0
   -8.1889  -20.2629   33.6809 H   0  0  0  0  0  0  0  0  0  0  0  0
   -7.8113  -22.0764   33.7971 H   0  0  0  0  0  0  0  0  0  0  0  0
   -8.4544  -23.5318   32.9794 H   0  0  0  0  0  0  0  0  0  0  0  0
  -10.1114  -23.1794   33.4985 H   0  0  0  0  0  0  0  0  0  0  0  0
  -10.1810  -24.2898   30.9309 H   0  0  0  0  0  0  0  0  0  0  0  0
   -9.5827  -25.2625   32.2491 H   0  0  0  0  0  0  0  0  0  0  0  0
  -12.0918  -25.2648   32.0234 H   0  0  0  0  0  0  0  0  0  0  0  0
  -13.9297  -24.5646   32.5266 H   0  0  0  0  0  0  0  0  0  0  0  0
  -13.6505  -25.3865   34.1267 H   0  0  0  0  0  0  0  0  0  0  0  0
  -16.8328  -21.3386   33.9035 H   0  0  0  0  0  0  0  0  0  0  0  0
  -17.8592  -23.7841   34.7290 H   0  0  0  0  0  0  0  0  0  0  0  0
  -10.5640  -21.0167   29.3898 H   0  0  0  0  0  0  0  0  0  0  0  0
  1  2  1  0
  2  3  1  0
  3  4  2  0
  4  5  1  0
  5  6  2  0
  6  7  1  0
  7  8  1  0
  8  9  2  0
  8 10  1  0
 10 11  1  0
 10 12  1  0
 12 13  1  0
 13 14  1  0
 14 15  1  0
 15 16  2  0
 15 17  1  0
 17 18  1  0
 18 19  1  0
 19 20  2  0
 20 21  1  0
 21 22  2  0
  7 23  2  0
 23  3  1  0
 22 18  1  0
  1 24  1  0
  1 25  1  0
  1 26  1  0
  4 27  1  0
  6 28  1  0
 11 29  1  0
 11 30  1  0
 11 31  1  0
 12 32  1  0
 12 33  1  0
 13 34  1  0
 13 35  1  0
 14 36  1  0
 17 37  1  0
 17 38  1  0
 20 39  1  0
 21 40  1  0
 23 41  1  0
M  END
>  <Energy>  (1323) 
259.40802602175512

>  <compound_id>  (1323) 
69259

>  <target_id>  (1323) 
1

>  <reference_id>  (1323) 
82

>  <inspiration_ids>  (1323) 
[82, 54]

>  <energy_score>  (1323) 
181.17484190306476

>  <distance_score>  (1323) 
3.7731949480309064

>  <path>  (1323) 
/opt/xchem-fragalysis-2/maxwin/BulkDock/SCRATCH/511022/C69259-P82/C69259-P82.minimised.mol

>  <scratch_subdir>  (1323) 
/opt/xchem-fragalysis-2/maxwin/BulkDock/SCRATCH/511022/C69259-P82

>  <fragmenstein_runtime>  (1323) 
8.962536573410034

>  <fragmenstein_outcome>  (1323) 
too moved

>  <fragmenstein_mode>  (1323) 
expansion

>  <fragmenstein_error>  (1323) 


$$$$
C69259-P54
     RDKit          3D

 41 42  0  0  0  0  0  0  0  0999 V2000
  -14.2923  -24.6363   26.1781 C   0  0  0  0  0  0  0  0  0  0  0  0
  -12.9030  -24.9611   26.2167 O   0  0  0  0  0  0  0  0  0  0  0  0
  -12.1350  -24.0400   26.8633 C   0  0  0  0  0  0  0  0  0  0  0  0
  -10.8500  -23.8110   26.4164 C   0  0  0  0  0  0  0  0  0  0  0  0
   -9.9746  -22.9522   26.9825 N   0  0  0  0  0  0  0  0  0  0  0  0
  -10.3847  -22.2972   28.0772 C   0  0  0  0  0  0  0  0  0  0  0  0
  -11.6024  -22.5248   28.6604 C   0  0  0  0  0  0  0  0  0  0  0  0
  -11.9610  -21.9321   29.9544 C   0  0  0  0  0  0  0  0  0  0  0  0
  -13.1433  -21.8412   30.1348 O   0  0  0  0  0  0  0  0  0  0  0  0
  -10.8713  -21.5434   30.7716 N   0  0  0  0  0  0  0  0  0  0  0  0
  -10.8417  -20.7923   32.0751 C   0  0  0  0  0  0  0  0  0  0  0  0
  -10.4484  -22.7108   31.6951 C   0  0  0  0  0  0  0  0  0  0  0  0
  -10.0104  -24.0217   30.9537 C   0  0  0  0  0  0  0  0  0  0  0  0
  -11.1013  -24.8918   30.5585 N   0  0  0  0  0  0  0  0  0  0  0  0
  -11.2384  -25.7878   29.4354 C   0  0  0  0  0  0  0  0  0  0  0  0
  -10.5172  -25.9833   28.4981 O   0  0  0  0  0  0  0  0  0  0  0  0
  -12.5760  -26.5018   29.4440 C   0  0  0  0  0  0  0  0  0  0  0  0
  -12.7029  -27.3438   30.6038 N   0  0  0  0  0  0  0  0  0  0  0  0
  -12.6761  -28.6811   30.5115 N   0  0  0  0  0  0  0  0  0  0  0  0
  -12.9367  -29.0435   31.7693 C   0  0  0  0  0  0  0  0  0  0  0  0
  -13.1259  -27.9047   32.5589 C   0  0  0  0  0  0  0  0  0  0  0  0
  -12.9874  -26.8014   31.8123 N   0  0  0  0  0  0  0  0  0  0  0  0
  -12.4945  -23.4054   28.0336 C   0  0  0  0  0  0  0  0  0  0  0  0
  -14.4562  -23.5960   25.8760 H   0  0  0  0  0  0  0  0  0  0  0  0
  -14.7616  -25.2826   25.4305 H   0  0  0  0  0  0  0  0  0  0  0  0
  -14.7684  -24.8453   27.1411 H   0  0  0  0  0  0  0  0  0  0  0  0
  -10.4493  -24.3521   25.5740 H   0  0  0  0  0  0  0  0  0  0  0  0
   -9.6802  -21.5898   28.4839 H   0  0  0  0  0  0  0  0  0  0  0  0
   -9.8620  -20.6566   32.5518 H   0  0  0  0  0  0  0  0  0  0  0  0
  -11.1330  -19.7741   31.7775 H   0  0  0  0  0  0  0  0  0  0  0  0
  -11.6424  -21.0719   32.7742 H   0  0  0  0  0  0  0  0  0  0  0  0
   -9.5247  -22.4775   32.2505 H   0  0  0  0  0  0  0  0  0  0  0  0
  -11.2606  -22.9927   32.3641 H   0  0  0  0  0  0  0  0  0  0  0  0
   -9.3645  -23.8194   30.0956 H   0  0  0  0  0  0  0  0  0  0  0  0
   -9.4221  -24.6192   31.6594 H   0  0  0  0  0  0  0  0  0  0  0  0
  -11.8657  -25.0522   31.2048 H   0  0  0  0  0  0  0  0  0  0  0  0
  -13.4019  -25.7862   29.4501 H   0  0  0  0  0  0  0  0  0  0  0  0
  -12.6706  -27.1261   28.5489 H   0  0  0  0  0  0  0  0  0  0  0  0
  -12.9762  -30.0911   32.0372 H   0  0  0  0  0  0  0  0  0  0  0  0
  -13.3613  -27.8371   33.6111 H   0  0  0  0  0  0  0  0  0  0  0  0
  -13.4410  -23.6285   28.5113 H   0  0  0  0  0  0  0  0  0  0  0  0
  1  2  1  0
  2  3  1  0
  3  4  2  0
  4  5  1  0
  5  6  2  0
  6  7  1  0
  7  8  1  0
  8  9  2  0
  8 10  1  0
 10 11  1  0
 10 12  1  0
 12 13  1  0
 13 14  1  0
 14 15  1  0
 15 16  2  0
 15 17  1  0
 17 18  1  0
 18 19  1  0
 19 20  2  0
 20 21  1  0
 21 22  2  0
  7 23  2  0
 23  3  1  0
 22 18  1  0
  1 24  1  0
  1 25  1  0
  1 26  1  0
  4 27  1  0
  6 28  1  0
 11 29  1  0
 11 30  1  0
 11 31  1  0
 12 32  1  0
 12 33  1  0
 13 34  1  0
 13 35  1  0
 14 36  1  0
 17 37  1  0
 17 38  1  0
 20 39  1  0
 21 40  1  0
 23 41  1  0
M  END
>  <Energy>  (1324) 
138.72483687129809

>  <compound_id>  (1324) 
69259

>  <target_id>  (1324) 
1

>  <reference_id>  (1324) 
54

>  <inspiration_ids>  (1324) 
[82, 54]

>  <energy_score>  (1324) 
60.49165275261004

>  <distance_score>  (1324) 
3.1160157733046137

>  <path>  (1324) 
/opt/xchem-fragalysis-2/maxwin/BulkDock/SCRATCH/511022/C69259-P54/C69259-P54.minimised.mol

>  <scratch_subdir>  (1324) 
/opt/xchem-fragalysis-2/maxwin/BulkDock/SCRATCH/511022/C69259-P54

>  <fragmenstein_runtime>  (1324) 
8.976086616516113

>  <fragmenstein_outcome>  (1324) 
too moved

>  <fragmenstein_mode>  (1324) 
expansion

>  <fragmenstein_error>  (1324) 


$$$$
C69260-P82
     RDKit          3D

 40 41  0  0  0  0  0  0  0  0999 V2000
   -9.8395  -26.3225   31.0942 C   0  0  0  0  0  0  0  0  0  0  0  0
  -10.2180  -26.2674   29.6600 C   0  0  0  0  0  0  0  0  0  0  0  0
  -11.2643  -27.0422   29.1795 C   0  0  0  0  0  0  0  0  0  0  0  0
  -11.7087  -26.8256   27.8811 C   0  0  0  0  0  0  0  0  0  0  0  0
  -11.3620  -25.5913   27.3413 C   0  0  0  0  0  0  0  0  0  0  0  0
  -12.3105  -24.6763   28.0117 C   0  0  0  0  0  0  0  0  0  0  0  0
  -13.4645  -24.9172   27.7811 O   0  0  0  0  0  0  0  0  0  0  0  0
  -11.7035  -23.7093   28.9123 N   0  0  0  0  0  0  0  0  0  0  0  0
  -11.4660  -22.4225   28.1966 C   0  0  0  0  0  0  0  0  0  0  0  0
  -12.3225  -22.7847   29.9224 C   0  0  0  0  0  0  0  0  0  0  0  0
  -12.6547  -23.6621   31.1420 C   0  0  0  0  0  0  0  0  0  0  0  0
  -13.4391  -23.0382   32.1738 N   0  0  0  0  0  0  0  0  0  0  0  0
  -14.5809  -22.1610   32.0944 C   0  0  0  0  0  0  0  0  0  0  0  0
  -15.1227  -21.6614   31.1463 O   0  0  0  0  0  0  0  0  0  0  0  0
  -15.0825  -21.8260   33.4717 C   0  0  0  0  0  0  0  0  0  0  0  0
  -14.3328  -20.6918   33.9519 N   0  0  0  0  0  0  0  0  0  0  0  0
  -12.9857  -20.7455   34.1060 N   0  0  0  0  0  0  0  0  0  0  0  0
  -12.7297  -19.5478   34.6402 C   0  0  0  0  0  0  0  0  0  0  0  0
  -13.9204  -18.8274   34.7831 C   0  0  0  0  0  0  0  0  0  0  0  0
  -14.9490  -19.5513   34.3304 N   0  0  0  0  0  0  0  0  0  0  0  0
  -10.1092  -25.1659   27.6694 C   0  0  0  0  0  0  0  0  0  0  0  0
   -9.5192  -25.4477   28.8509 N   0  0  0  0  0  0  0  0  0  0  0  0
   -9.1894  -25.4909   31.3771 H   0  0  0  0  0  0  0  0  0  0  0  0
  -10.7162  -26.2937   31.7448 H   0  0  0  0  0  0  0  0  0  0  0  0
   -9.3120  -27.2622   31.2165 H   0  0  0  0  0  0  0  0  0  0  0  0
  -11.7339  -27.7796   29.8075 H   0  0  0  0  0  0  0  0  0  0  0  0
  -12.5845  -27.3562   27.5171 H   0  0  0  0  0  0  0  0  0  0  0  0
  -11.1649  -22.6880   27.1821 H   0  0  0  0  0  0  0  0  0  0  0  0
  -10.6362  -21.8538   28.6176 H   0  0  0  0  0  0  0  0  0  0  0  0
  -12.3445  -21.8167   27.9856 H   0  0  0  0  0  0  0  0  0  0  0  0
  -11.6270  -22.0324   30.3305 H   0  0  0  0  0  0  0  0  0  0  0  0
  -13.2222  -22.3034   29.6274 H   0  0  0  0  0  0  0  0  0  0  0  0
  -13.1745  -24.5598   30.8285 H   0  0  0  0  0  0  0  0  0  0  0  0
  -11.7241  -23.9924   31.6174 H   0  0  0  0  0  0  0  0  0  0  0  0
  -13.2094  -23.1963   33.1506 H   0  0  0  0  0  0  0  0  0  0  0  0
  -16.1445  -21.5640   33.4250 H   0  0  0  0  0  0  0  0  0  0  0  0
  -14.9679  -22.6599   34.1679 H   0  0  0  0  0  0  0  0  0  0  0  0
  -11.7214  -19.2466   34.8744 H   0  0  0  0  0  0  0  0  0  0  0  0
  -14.0796  -17.8293   35.1674 H   0  0  0  0  0  0  0  0  0  0  0  0
   -9.7414  -24.2892   27.1539 H   0  0  0  0  0  0  0  0  0  0  0  0
  1  2  1  0
  2  3  2  0
  3  4  1  0
  4  5  2  0
  5  6  1  0
  6  7  2  0
  6  8  1  0
  8  9  1  0
  8 10  1  0
 10 11  1  0
 11 12  1  0
 12 13  1  0
 13 14  2  0
 13 15  1  0
 15 16  1  0
 16 17  1  0
 17 18  2  0
 18 19  1  0
 19 20  2  0
  5 21  1  0
 21 22  2  0
 22  2  1  0
 20 16  1  0
  1 23  1  0
  1 24  1  0
  1 25  1  0
  3 26  1  0
  4 27  1  0
  9 28  1  0
  9 29  1  0
  9 30  1  0
 10 31  1  0
 10 32  1  0
 11 33  1  0
 11 34  1  0
 12 35  1  0
 15 36  1  0
 15 37  1  0
 18 38  1  0
 19 39  1  0
 21 40  1  0
M  END
>  <Energy>  (1325) 
197.37769419279627

>  <compound_id>  (1325) 
69260

>  <target_id>  (1325) 
1

>  <reference_id>  (1325) 
82

>  <inspiration_ids>  (1325) 
[82, 54]

>  <energy_score>  (1325) 
114.84979959270166

>  <distance_score>  (1325) 
4.387131615535072

>  <path>  (1325) 
/opt/xchem-fragalysis-2/maxwin/BulkDock/SCRATCH/511022/C69260-P82/C69260-P82.minimised.mol

>  <scratch_subdir>  (1325) 
/opt/xchem-fragalysis-2/maxwin/BulkDock/SCRATCH/511022/C69260-P82

>  <fragmenstein_runtime>  (1325) 
9.120474576950073

>  <fragmenstein_outcome>  (1325) 
too moved

>  <fragmenstein_mode>  (1325) 
expansion

>  <fragmenstein_error>  (1325) 


$$$$
C69260-P54
     RDKit          3D

 40 41  0  0  0  0  0  0  0  0999 V2000
  -10.5753  -22.2136   30.7327 C   0  0  0  0  0  0  0  0  0  0  0  0
  -11.0143  -23.1465   29.6467 C   0  0  0  0  0  0  0  0  0  0  0  0
  -11.0589  -24.5117   29.8974 C   0  0  0  0  0  0  0  0  0  0  0  0
  -11.6072  -25.3485   28.9331 C   0  0  0  0  0  0  0  0  0  0  0  0
  -12.0757  -24.7997   27.7409 C   0  0  0  0  0  0  0  0  0  0  0  0
  -12.8708  -25.6824   26.8592 C   0  0  0  0  0  0  0  0  0  0  0  0
  -12.3010  -26.3583   26.0462 O   0  0  0  0  0  0  0  0  0  0  0  0
  -14.2465  -25.6314   27.2205 N   0  0  0  0  0  0  0  0  0  0  0  0
  -14.9673  -24.6020   26.3830 C   0  0  0  0  0  0  0  0  0  0  0  0
  -15.4201  -26.4894   26.7804 C   0  0  0  0  0  0  0  0  0  0  0  0
  -15.3518  -27.7779   27.6401 C   0  0  0  0  0  0  0  0  0  0  0  0
  -15.4274  -27.4523   29.0497 N   0  0  0  0  0  0  0  0  0  0  0  0
  -16.1339  -28.0888   30.1284 C   0  0  0  0  0  0  0  0  0  0  0  0
  -16.9050  -29.0059   30.1245 O   0  0  0  0  0  0  0  0  0  0  0  0
  -15.8790  -27.3558   31.4413 C   0  0  0  0  0  0  0  0  0  0  0  0
  -14.5213  -27.5529   31.8999 N   0  0  0  0  0  0  0  0  0  0  0  0
  -14.2227  -28.4027   32.9040 N   0  0  0  0  0  0  0  0  0  0  0  0
  -12.8912  -28.3300   32.9389 C   0  0  0  0  0  0  0  0  0  0  0  0
  -12.4548  -27.3674   32.0258 C   0  0  0  0  0  0  0  0  0  0  0  0
  -13.4983  -26.8120   31.3996 N   0  0  0  0  0  0  0  0  0  0  0  0
  -11.9053  -23.4453   27.5244 C   0  0  0  0  0  0  0  0  0  0  0  0
  -11.3972  -22.6078   28.4634 N   0  0  0  0  0  0  0  0  0  0  0  0
  -10.6858  -21.1744   30.4102 H   0  0  0  0  0  0  0  0  0  0  0  0
   -9.5300  -22.4024   30.9927 H   0  0  0  0  0  0  0  0  0  0  0  0
  -11.1924  -22.3519   31.6255 H   0  0  0  0  0  0  0  0  0  0  0  0
  -10.7218  -24.9039   30.8494 H   0  0  0  0  0  0  0  0  0  0  0  0
  -11.7189  -26.4113   29.1254 H   0  0  0  0  0  0  0  0  0  0  0  0
  -15.9197  -24.2590   26.8115 H   0  0  0  0  0  0  0  0  0  0  0  0
  -15.0120  -24.8483   25.3134 H   0  0  0  0  0  0  0  0  0  0  0  0
  -14.3534  -23.6949   26.3975 H   0  0  0  0  0  0  0  0  0  0  0  0
  -15.3121  -26.8174   25.7361 H   0  0  0  0  0  0  0  0  0  0  0  0
  -16.4208  -26.0839   27.0005 H   0  0  0  0  0  0  0  0  0  0  0  0
  -14.4046  -28.3041   27.4813 H   0  0  0  0  0  0  0  0  0  0  0  0
  -16.1722  -28.4575   27.3893 H   0  0  0  0  0  0  0  0  0  0  0  0
  -14.7895  -26.7551   29.4350 H   0  0  0  0  0  0  0  0  0  0  0  0
  -16.0550  -26.2819   31.3211 H   0  0  0  0  0  0  0  0  0  0  0  0
  -16.5603  -27.7293   32.2132 H   0  0  0  0  0  0  0  0  0  0  0  0
  -12.3288  -28.9577   33.6167 H   0  0  0  0  0  0  0  0  0  0  0  0
  -11.4568  -27.0325   31.8059 H   0  0  0  0  0  0  0  0  0  0  0  0
  -12.2144  -22.9601   26.6033 H   0  0  0  0  0  0  0  0  0  0  0  0
  1  2  1  0
  2  3  2  0
  3  4  1  0
  4  5  2  0
  5  6  1  0
  6  7  2  0
  6  8  1  0
  8  9  1  0
  8 10  1  0
 10 11  1  0
 11 12  1  0
 12 13  1  0
 13 14  2  0
 13 15  1  0
 15 16  1  0
 16 17  1  0
 17 18  2  0
 18 19  1  0
 19 20  2  0
  5 21  1  0
 21 22  2  0
 22  2  1  0
 20 16  1  0
  1 23  1  0
  1 24  1  0
  1 25  1  0
  3 26  1  0
  4 27  1  0
  9 28  1  0
  9 29  1  0
  9 30  1  0
 10 31  1  0
 10 32  1  0
 11 33  1  0
 11 34  1  0
 12 35  1  0
 15 36  1  0
 15 37  1  0
 18 38  1  0
 19 39  1  0
 21 40  1  0
M  END
>  <Energy>  (1326) 
121.96659797127059

>  <compound_id>  (1326) 
69260

>  <target_id>  (1326) 
1

>  <reference_id>  (1326) 
54

>  <inspiration_ids>  (1326) 
[82, 54]

>  <energy_score>  (1326) 
39.4387033711744

>  <distance_score>  (1326) 
3.042533703182078

>  <path>  (1326) 
/opt/xchem-fragalysis-2/maxwin/BulkDock/SCRATCH/511022/C69260-P54/C69260-P54.minimised.mol

>  <scratch_subdir>  (1326) 
/opt/xchem-fragalysis-2/maxwin/BulkDock/SCRATCH/511022/C69260-P54

>  <fragmenstein_runtime>  (1326) 
8.684088706970215

>  <fragmenstein_outcome>  (1326) 
too moved

>  <fragmenstein_mode>  (1326) 
expansion

>  <fragmenstein_error>  (1326) 


$$$$
C69261-P82
     RDKit          3D

 41 42  0  0  0  0  0  0  0  0999 V2000
  -14.2418  -29.1002   24.1903 C   0  0  0  0  0  0  0  0  0  0  0  0
  -13.8156  -27.7922   24.7757 N   0  0  0  0  0  0  0  0  0  0  0  0
  -14.1833  -28.5136   26.0881 C   0  0  0  0  0  0  0  0  0  0  0  0
  -13.0094  -29.1357   26.8905 C   0  0  0  0  0  0  0  0  0  0  0  0
  -12.2255  -28.1478   27.6130 N   0  0  0  0  0  0  0  0  0  0  0  0
  -12.0344  -27.9474   29.0019 C   0  0  0  0  0  0  0  0  0  0  0  0
  -12.5310  -28.4903   29.9365 O   0  0  0  0  0  0  0  0  0  0  0  0
  -11.0068  -26.8230   29.3239 C   0  0  0  0  0  0  0  0  0  0  0  0
  -11.2785  -25.8236   30.4147 C   0  0  0  0  0  0  0  0  0  0  0  0
  -12.1373  -24.7477   30.2824 C   0  0  0  0  0  0  0  0  0  0  0  0
  -12.2722  -23.7725   31.2198 N   0  0  0  0  0  0  0  0  0  0  0  0
  -11.6068  -23.9851   32.3705 C   0  0  0  0  0  0  0  0  0  0  0  0
  -10.7498  -25.0525   32.5228 C   0  0  0  0  0  0  0  0  0  0  0  0
  -10.5272  -25.9437   31.5359 N   0  0  0  0  0  0  0  0  0  0  0  0
  -12.5340  -27.2019   24.8853 C   0  0  0  0  0  0  0  0  0  0  0  0
  -11.4457  -27.6386   24.6172 O   0  0  0  0  0  0  0  0  0  0  0  0
  -12.5585  -25.8634   25.5166 C   0  0  0  0  0  0  0  0  0  0  0  0
  -13.6422  -25.0287   25.4306 C   0  0  0  0  0  0  0  0  0  0  0  0
  -13.6358  -23.8193   25.9978 N   0  0  0  0  0  0  0  0  0  0  0  0
  -12.5533  -23.4565   26.7203 C   0  0  0  0  0  0  0  0  0  0  0  0
  -11.4654  -24.2508   26.9495 C   0  0  0  0  0  0  0  0  0  0  0  0
  -10.4163  -23.8177   27.7402 N   0  0  0  0  0  0  0  0  0  0  0  0
  -11.4396  -25.4238   26.2305 C   0  0  0  0  0  0  0  0  0  0  0  0
  -13.9625  -29.0142   23.1310 H   0  0  0  0  0  0  0  0  0  0  0  0
  -13.6886  -29.9915   24.5154 H   0  0  0  0  0  0  0  0  0  0  0  0
  -15.3347  -29.2180   24.1669 H   0  0  0  0  0  0  0  0  0  0  0  0
  -14.5420  -27.6748   26.7068 H   0  0  0  0  0  0  0  0  0  0  0  0
  -15.0754  -29.1664   26.1023 H   0  0  0  0  0  0  0  0  0  0  0  0
  -13.4292  -29.8108   27.6447 H   0  0  0  0  0  0  0  0  0  0  0  0
  -12.3302  -29.7177   26.2719 H   0  0  0  0  0  0  0  0  0  0  0  0
  -11.5787  -27.5694   27.1087 H   0  0  0  0  0  0  0  0  0  0  0  0
  -10.6857  -26.3173   28.4296 H   0  0  0  0  0  0  0  0  0  0  0  0
  -10.1034  -27.3160   29.6791 H   0  0  0  0  0  0  0  0  0  0  0  0
  -12.7493  -24.6263   29.4027 H   0  0  0  0  0  0  0  0  0  0  0  0
  -11.7867  -23.2766   33.1693 H   0  0  0  0  0  0  0  0  0  0  0  0
  -10.2148  -25.2408   33.4417 H   0  0  0  0  0  0  0  0  0  0  0  0
  -14.5393  -25.2803   24.8748 H   0  0  0  0  0  0  0  0  0  0  0  0
  -12.5864  -22.4821   27.1845 H   0  0  0  0  0  0  0  0  0  0  0  0
  -10.6718  -23.0843   28.4012 H   0  0  0  0  0  0  0  0  0  0  0  0
   -9.8164  -24.5195   28.1515 H   0  0  0  0  0  0  0  0  0  0  0  0
  -10.5740  -26.0651   26.2925 H   0  0  0  0  0  0  0  0  0  0  0  0
  1  2  1  0
  2  3  1  0
  3  4  1  0
  4  5  1  0
  5  6  1  0
  6  7  2  0
  6  8  1  0
  8  9  1  0
  9 10  2  0
 10 11  1  0
 11 12  2  0
 12 13  1  0
 13 14  2  0
  2 15  1  0
 15 16  2  0
 15 17  1  0
 17 18  2  0
 18 19  1  0
 19 20  2  0
 20 21  1  0
 21 22  1  0
 21 23  2  0
 14  9  1  0
 23 17  1  0
  1 24  1  0
  1 25  1  0
  1 26  1  0
  3 27  1  0
  3 28  1  0
  4 29  1  0
  4 30  1  0
  5 31  1  0
  8 32  1  0
  8 33  1  0
 10 34  1  0
 12 35  1  0
 13 36  1  0
 18 37  1  0
 20 38  1  0
 22 39  1  0
 22 40  1  0
 23 41  1  0
M  END
>  <Energy>  (1327) 
184.94344324437924

>  <compound_id>  (1327) 
69261

>  <target_id>  (1327) 
1

>  <reference_id>  (1327) 
82

>  <inspiration_ids>  (1327) 
[82, 54]

>  <energy_score>  (1327) 
48.43728326405997

>  <distance_score>  (1327) 
3.398946124536694

>  <path>  (1327) 
/opt/xchem-fragalysis-2/maxwin/BulkDock/SCRATCH/511022/C69261-P82/C69261-P82.minimised.mol

>  <scratch_subdir>  (1327) 
/opt/xchem-fragalysis-2/maxwin/BulkDock/SCRATCH/511022/C69261-P82

>  <fragmenstein_runtime>  (1327) 
7.944109678268433

>  <fragmenstein_outcome>  (1327) 
too moved

>  <fragmenstein_mode>  (1327) 
expansion

>  <fragmenstein_error>  (1327) 


$$$$
C69261-P54
     RDKit          3D

 41 42  0  0  0  0  0  0  0  0999 V2000
  -15.5657  -25.9103   25.8810 C   0  0  0  0  0  0  0  0  0  0  0  0
  -14.5449  -25.1010   26.5943 N   0  0  0  0  0  0  0  0  0  0  0  0
  -15.2550  -25.7294   27.8425 C   0  0  0  0  0  0  0  0  0  0  0  0
  -14.7478  -27.0980   28.4007 C   0  0  0  0  0  0  0  0  0  0  0  0
  -13.3716  -27.0273   28.8178 N   0  0  0  0  0  0  0  0  0  0  0  0
  -12.7823  -26.5819   30.0501 C   0  0  0  0  0  0  0  0  0  0  0  0
  -13.2885  -26.2306   31.0738 O   0  0  0  0  0  0  0  0  0  0  0  0
  -11.2699  -26.5306   29.8944 C   0  0  0  0  0  0  0  0  0  0  0  0
  -10.5679  -25.3555   30.5537 C   0  0  0  0  0  0  0  0  0  0  0  0
   -9.8380  -24.4398   29.8030 C   0  0  0  0  0  0  0  0  0  0  0  0
   -9.1250  -23.4114   30.3293 N   0  0  0  0  0  0  0  0  0  0  0  0
   -9.0890  -23.3604   31.6691 C   0  0  0  0  0  0  0  0  0  0  0  0
   -9.6977  -24.3245   32.4317 C   0  0  0  0  0  0  0  0  0  0  0  0
  -10.4497  -25.3269   31.8973 N   0  0  0  0  0  0  0  0  0  0  0  0
  -13.1327  -25.2614   26.6934 C   0  0  0  0  0  0  0  0  0  0  0  0
  -12.4143  -26.1472   26.2978 O   0  0  0  0  0  0  0  0  0  0  0  0
  -12.4121  -24.0995   27.2955 C   0  0  0  0  0  0  0  0  0  0  0  0
  -11.2921  -23.6219   26.6379 C   0  0  0  0  0  0  0  0  0  0  0  0
  -10.5592  -22.5664   27.0474 N   0  0  0  0  0  0  0  0  0  0  0  0
  -10.9651  -21.9301   28.1641 C   0  0  0  0  0  0  0  0  0  0  0  0
  -11.9785  -22.3976   28.9845 C   0  0  0  0  0  0  0  0  0  0  0  0
  -12.3702  -21.6954   30.1293 N   0  0  0  0  0  0  0  0  0  0  0  0
  -12.7231  -23.4865   28.5061 C   0  0  0  0  0  0  0  0  0  0  0  0
  -15.2702  -25.8034   24.8297 H   0  0  0  0  0  0  0  0  0  0  0  0
  -15.5226  -26.9980   26.0047 H   0  0  0  0  0  0  0  0  0  0  0  0
  -16.5739  -25.4747   25.9153 H   0  0  0  0  0  0  0  0  0  0  0  0
  -15.0461  -25.0077   28.6367 H   0  0  0  0  0  0  0  0  0  0  0  0
  -16.3594  -25.6907   27.8349 H   0  0  0  0  0  0  0  0  0  0  0  0
  -15.3433  -27.3518   29.2842 H   0  0  0  0  0  0  0  0  0  0  0  0
  -14.8301  -27.9162   27.6824 H   0  0  0  0  0  0  0  0  0  0  0  0
  -12.6351  -27.1667   28.1282 H   0  0  0  0  0  0  0  0  0  0  0  0
  -10.9142  -27.4764   30.3117 H   0  0  0  0  0  0  0  0  0  0  0  0
  -10.9875  -26.5384   28.8360 H   0  0  0  0  0  0  0  0  0  0  0  0
   -9.7615  -24.5227   28.7253 H   0  0  0  0  0  0  0  0  0  0  0  0
   -8.5191  -22.5535   32.1132 H   0  0  0  0  0  0  0  0  0  0  0  0
   -9.6064  -24.3122   33.5104 H   0  0  0  0  0  0  0  0  0  0  0  0
  -10.9083  -24.0886   25.7421 H   0  0  0  0  0  0  0  0  0  0  0  0
  -10.4031  -21.0362   28.4157 H   0  0  0  0  0  0  0  0  0  0  0  0
  -11.6079  -21.1635   30.5472 H   0  0  0  0  0  0  0  0  0  0  0  0
  -12.7864  -22.2859   30.8511 H   0  0  0  0  0  0  0  0  0  0  0  0
  -13.5564  -23.8312   29.0898 H   0  0  0  0  0  0  0  0  0  0  0  0
  1  2  1  0
  2  3  1  0
  3  4  1  0
  4  5  1  0
  5  6  1  0
  6  7  2  0
  6  8  1  0
  8  9  1  0
  9 10  2  0
 10 11  1  0
 11 12  2  0
 12 13  1  0
 13 14  2  0
  2 15  1  0
 15 16  2  0
 15 17  1  0
 17 18  2  0
 18 19  1  0
 19 20  2  0
 20 21  1  0
 21 22  1  0
 21 23  2  0
 14  9  1  0
 23 17  1  0
  1 24  1  0
  1 25  1  0
  1 26  1  0
  3 27  1  0
  3 28  1  0
  4 29  1  0
  4 30  1  0
  5 31  1  0
  8 32  1  0
  8 33  1  0
 10 34  1  0
 12 35  1  0
 13 36  1  0
 18 37  1  0
 20 38  1  0
 22 39  1  0
 22 40  1  0
 23 41  1  0
M  END
>  <Energy>  (1328) 
179.08171759984276

>  <compound_id>  (1328) 
69261

>  <target_id>  (1328) 
1

>  <reference_id>  (1328) 
54

>  <inspiration_ids>  (1328) 
[82, 54]

>  <energy_score>  (1328) 
42.57555761952281

>  <distance_score>  (1328) 
2.5164290278588854

>  <path>  (1328) 
/opt/xchem-fragalysis-2/maxwin/BulkDock/SCRATCH/511022/C69261-P54/C69261-P54.minimised.mol

>  <scratch_subdir>  (1328) 
/opt/xchem-fragalysis-2/maxwin/BulkDock/SCRATCH/511022/C69261-P54

>  <fragmenstein_runtime>  (1328) 
9.319742202758789

>  <fragmenstein_outcome>  (1328) 
too moved

>  <fragmenstein_mode>  (1328) 
expansion

>  <fragmenstein_error>  (1328) 


$$$$
C69263-P82
     RDKit          3D

 44 45  0  0  0  0  0  0  0  0999 V2000
  -10.5419  -28.5808   31.6374 C   0  0  0  0  0  0  0  0  0  0  0  0
   -9.9531  -27.4759   30.8455 C   0  0  0  0  0  0  0  0  0  0  0  0
  -11.0150  -26.9344   30.1100 O   0  0  0  0  0  0  0  0  0  0  0  0
  -11.7185  -26.0333   30.8619 C   0  0  0  0  0  0  0  0  0  0  0  0
  -11.5399  -25.9759   32.2480 N   0  0  0  0  0  0  0  0  0  0  0  0
  -12.2687  -25.1434   33.0402 C   0  0  0  0  0  0  0  0  0  0  0  0
  -13.1614  -24.2866   32.5133 C   0  0  0  0  0  0  0  0  0  0  0  0
  -13.2524  -24.3461   31.1161 C   0  0  0  0  0  0  0  0  0  0  0  0
  -12.5808  -25.2455   30.2165 C   0  0  0  0  0  0  0  0  0  0  0  0
  -12.7697  -25.1596   28.7050 C   0  0  0  0  0  0  0  0  0  0  0  0
  -13.6689  -25.6696   28.0987 O   0  0  0  0  0  0  0  0  0  0  0  0
  -11.7709  -24.3171   28.2803 N   0  0  0  0  0  0  0  0  0  0  0  0
  -10.5599  -25.1127   27.8525 C   0  0  0  0  0  0  0  0  0  0  0  0
  -11.5423  -23.6870   27.0064 C   0  0  0  0  0  0  0  0  0  0  0  0
  -11.8658  -22.2558   27.5914 C   0  0  0  0  0  0  0  0  0  0  0  0
  -11.3974  -22.0290   28.9964 N   0  0  0  0  0  0  0  0  0  0  0  0
  -12.1350  -21.8908   30.2307 C   0  0  0  0  0  0  0  0  0  0  0  0
  -13.3133  -21.8407   30.4336 O   0  0  0  0  0  0  0  0  0  0  0  0
  -11.3572  -21.9120   31.5636 C   0  0  0  0  0  0  0  0  0  0  0  0
  -10.7187  -23.2078   31.8669 N   0  0  0  0  0  0  0  0  0  0  0  0
  -10.1665  -24.0892   30.9797 C   0  0  0  0  0  0  0  0  0  0  0  0
   -9.2132  -24.7998   31.4966 N   0  0  0  0  0  0  0  0  0  0  0  0
   -9.3759  -24.5304   32.7888 C   0  0  0  0  0  0  0  0  0  0  0  0
  -10.1690  -23.4850   33.0375 N   0  0  0  0  0  0  0  0  0  0  0  0
  -11.4235  -29.0780   31.2290 H   0  0  0  0  0  0  0  0  0  0  0  0
   -9.8692  -29.3428   32.0140 H   0  0  0  0  0  0  0  0  0  0  0  0
  -10.8478  -28.0152   32.5009 H   0  0  0  0  0  0  0  0  0  0  0  0
   -9.1521  -27.7340   30.1856 H   0  0  0  0  0  0  0  0  0  0  0  0
   -9.4464  -26.7885   31.4925 H   0  0  0  0  0  0  0  0  0  0  0  0
  -12.0437  -25.1620   34.0960 H   0  0  0  0  0  0  0  0  0  0  0  0
  -13.7685  -23.6189   33.1070 H   0  0  0  0  0  0  0  0  0  0  0  0
  -14.0434  -23.7060   30.7829 H   0  0  0  0  0  0  0  0  0  0  0  0
   -9.6670  -24.4891   27.9027 H   0  0  0  0  0  0  0  0  0  0  0  0
  -10.3138  -25.8988   28.5431 H   0  0  0  0  0  0  0  0  0  0  0  0
  -10.7073  -25.6796   26.9161 H   0  0  0  0  0  0  0  0  0  0  0  0
  -12.3116  -23.9662   26.2745 H   0  0  0  0  0  0  0  0  0  0  0  0
  -10.5777  -23.6118   26.5073 H   0  0  0  0  0  0  0  0  0  0  0  0
  -11.5343  -21.4852   26.9204 H   0  0  0  0  0  0  0  0  0  0  0  0
  -12.9357  -22.2713   27.6874 H   0  0  0  0  0  0  0  0  0  0  0  0
  -10.4277  -21.9520   29.1880 H   0  0  0  0  0  0  0  0  0  0  0  0
  -10.6328  -21.0997   31.6229 H   0  0  0  0  0  0  0  0  0  0  0  0
  -12.0571  -21.7306   32.3899 H   0  0  0  0  0  0  0  0  0  0  0  0
  -10.3951  -24.0618   29.9488 H   0  0  0  0  0  0  0  0  0  0  0  0
   -8.9316  -25.1423   33.5574 H   0  0  0  0  0  0  0  0  0  0  0  0
  1  2  1  0
  2  3  1  0
  3  4  1  0
  4  5  2  0
  5  6  1  0
  6  7  2  0
  7  8  1  0
  8  9  2  0
  9 10  1  0
 10 11  2  0
 10 12  1  0
 12 13  1  0
 12 14  1  0
 14 15  1  0
 15 16  1  0
 16 17  1  0
 17 18  2  0
 17 19  1  0
 19 20  1  0
 20 21  1  0
 21 22  2  0
 22 23  1  0
 23 24  2  0
  9  4  1  0
 24 20  1  0
  1 25  1  0
  1 26  1  0
  1 27  1  0
  2 28  1  0
  2 29  1  0
  6 30  1  0
  7 31  1  0
  8 32  1  0
 13 33  1  0
 13 34  1  0
 13 35  1  0
 14 36  1  0
 14 37  1  0
 15 38  1  0
 15 39  1  0
 16 40  1  0
 19 41  1  0
 19 42  1  0
 21 43  1  0
 23 44  1  0
M  END
>  <Energy>  (1329) 
260.02235136165524

>  <compound_id>  (1329) 
69263

>  <target_id>  (1329) 
1

>  <reference_id>  (1329) 
82

>  <inspiration_ids>  (1329) 
[82, 54]

>  <energy_score>  (1329) 
186.13381514617345

>  <distance_score>  (1329) 
1.9370646688599444

>  <path>  (1329) 
/opt/xchem-fragalysis-2/maxwin/BulkDock/SCRATCH/511022/C69263-P82/C69263-P82.minimised.mol

>  <scratch_subdir>  (1329) 
/opt/xchem-fragalysis-2/maxwin/BulkDock/SCRATCH/511022/C69263-P82

>  <fragmenstein_runtime>  (1329) 
11.967731952667236

>  <fragmenstein_outcome>  (1329) 
too moved

>  <fragmenstein_mode>  (1329) 
expansion

>  <fragmenstein_error>  (1329) 


$$$$
C69263-P54
     RDKit          3D

 44 45  0  0  0  0  0  0  0  0999 V2000
  -15.7721  -26.8506   27.9372 C   0  0  0  0  0  0  0  0  0  0  0  0
  -14.5686  -27.6163   27.4102 C   0  0  0  0  0  0  0  0  0  0  0  0
  -13.3576  -26.8811   27.5969 O   0  0  0  0  0  0  0  0  0  0  0  0
  -12.9038  -26.8828   28.8980 C   0  0  0  0  0  0  0  0  0  0  0  0
  -13.0096  -28.0483   29.5869 N   0  0  0  0  0  0  0  0  0  0  0  0
  -12.5150  -28.0800   30.8400 C   0  0  0  0  0  0  0  0  0  0  0  0
  -11.8806  -27.0069   31.4312 C   0  0  0  0  0  0  0  0  0  0  0  0
  -11.7203  -25.8414   30.6862 C   0  0  0  0  0  0  0  0  0  0  0  0
  -12.2761  -25.7492   29.4048 C   0  0  0  0  0  0  0  0  0  0  0  0
  -12.3352  -24.4309   28.6996 C   0  0  0  0  0  0  0  0  0  0  0  0
  -13.2792  -24.2274   27.9878 O   0  0  0  0  0  0  0  0  0  0  0  0
  -11.2666  -23.5785   29.0798 N   0  0  0  0  0  0  0  0  0  0  0  0
  -10.1212  -23.7220   28.1139 C   0  0  0  0  0  0  0  0  0  0  0  0
  -11.0281  -22.1032   28.8040 C   0  0  0  0  0  0  0  0  0  0  0  0
  -11.9396  -21.3011   29.7685 C   0  0  0  0  0  0  0  0  0  0  0  0
  -11.6100  -21.4886   31.1560 N   0  0  0  0  0  0  0  0  0  0  0  0
  -11.1138  -20.5679   32.1387 C   0  0  0  0  0  0  0  0  0  0  0  0
  -10.9211  -19.3881   32.0766 O   0  0  0  0  0  0  0  0  0  0  0  0
  -10.6887  -21.2855   33.4166 C   0  0  0  0  0  0  0  0  0  0  0  0
   -9.7669  -22.3932   33.2256 N   0  0  0  0  0  0  0  0  0  0  0  0
   -9.2068  -22.8547   32.0760 C   0  0  0  0  0  0  0  0  0  0  0  0
   -8.7145  -24.0495   32.2673 N   0  0  0  0  0  0  0  0  0  0  0  0
   -8.8074  -24.1995   33.6085 C   0  0  0  0  0  0  0  0  0  0  0  0
   -9.4635  -23.2279   34.2485 N   0  0  0  0  0  0  0  0  0  0  0  0
  -16.6999  -27.3765   27.6942 H   0  0  0  0  0  0  0  0  0  0  0  0
  -15.7198  -26.7271   29.0235 H   0  0  0  0  0  0  0  0  0  0  0  0
  -15.8111  -25.8467   27.5017 H   0  0  0  0  0  0  0  0  0  0  0  0
  -14.5154  -28.6295   27.8251 H   0  0  0  0  0  0  0  0  0  0  0  0
  -14.6870  -27.7398   26.3278 H   0  0  0  0  0  0  0  0  0  0  0  0
  -12.6376  -29.0244   31.3648 H   0  0  0  0  0  0  0  0  0  0  0  0
  -11.4986  -27.0856   32.4432 H   0  0  0  0  0  0  0  0  0  0  0  0
  -11.1998  -24.9963   31.1278 H   0  0  0  0  0  0  0  0  0  0  0  0
  -10.3306  -23.3862   27.0864 H   0  0  0  0  0  0  0  0  0  0  0  0
   -9.1572  -23.3863   28.5209 H   0  0  0  0  0  0  0  0  0  0  0  0
   -9.9711  -24.8058   27.9927 H   0  0  0  0  0  0  0  0  0  0  0  0
  -11.3740  -21.8240   27.7964 H   0  0  0  0  0  0  0  0  0  0  0  0
  -10.0153  -21.7425   29.0148 H   0  0  0  0  0  0  0  0  0  0  0  0
  -11.8570  -20.2345   29.5419 H   0  0  0  0  0  0  0  0  0  0  0  0
  -12.9717  -21.6314   29.6734 H   0  0  0  0  0  0  0  0  0  0  0  0
  -11.7229  -22.4027   31.5854 H   0  0  0  0  0  0  0  0  0  0  0  0
  -11.5642  -21.6432   33.9518 H   0  0  0  0  0  0  0  0  0  0  0  0
  -10.1791  -20.5699   34.0580 H   0  0  0  0  0  0  0  0  0  0  0  0
   -9.2203  -22.3329   31.1353 H   0  0  0  0  0  0  0  0  0  0  0  0
   -8.4082  -25.0602   34.1245 H   0  0  0  0  0  0  0  0  0  0  0  0
  1  2  1  0
  2  3  1  0
  3  4  1  0
  4  5  2  0
  5  6  1  0
  6  7  2  0
  7  8  1  0
  8  9  2  0
  9 10  1  0
 10 11  2  0
 10 12  1  0
 12 13  1  0
 12 14  1  0
 14 15  1  0
 15 16  1  0
 16 17  1  0
 17 18  2  0
 17 19  1  0
 19 20  1  0
 20 21  1  0
 21 22  2  0
 22 23  1  0
 23 24  2  0
  9  4  1  0
 24 20  1  0
  1 25  1  0
  1 26  1  0
  1 27  1  0
  2 28  1  0
  2 29  1  0
  6 30  1  0
  7 31  1  0
  8 32  1  0
 13 33  1  0
 13 34  1  0
 13 35  1  0
 14 36  1  0
 14 37  1  0
 15 38  1  0
 15 39  1  0
 16 40  1  0
 19 41  1  0
 19 42  1  0
 21 43  1  0
 23 44  1  0
M  END
>  <Energy>  (1330) 
109.75591087743349

>  <compound_id>  (1330) 
69263

>  <target_id>  (1330) 
1

>  <reference_id>  (1330) 
54

>  <inspiration_ids>  (1330) 
[82, 54]

>  <energy_score>  (1330) 
35.86737466195518

>  <distance_score>  (1330) 
2.5587554158263845

>  <path>  (1330) 
/opt/xchem-fragalysis-2/maxwin/BulkDock/SCRATCH/511022/C69263-P54/C69263-P54.minimised.mol

>  <scratch_subdir>  (1330) 
/opt/xchem-fragalysis-2/maxwin/BulkDock/SCRATCH/511022/C69263-P54

>  <fragmenstein_runtime>  (1330) 
12.106988906860352

>  <fragmenstein_outcome>  (1330) 
too moved

>  <fragmenstein_mode>  (1330) 
expansion

>  <fragmenstein_error>  (1330) 


$$$$
C69264-P82
     RDKit          3D

 44 45  0  0  0  0  0  0  0  0999 V2000
  -11.4743  -26.6816   29.3331 C   0  0  0  0  0  0  0  0  0  0  0  0
  -11.5383  -25.7290   30.5126 C   0  0  0  0  0  0  0  0  0  0  0  0
  -12.6395  -24.8661   30.3569 O   0  0  0  0  0  0  0  0  0  0  0  0
  -13.1200  -24.0105   31.3441 C   0  0  0  0  0  0  0  0  0  0  0  0
  -13.2074  -24.4396   32.6141 N   0  0  0  0  0  0  0  0  0  0  0  0
  -14.0476  -23.7423   33.4109 C   0  0  0  0  0  0  0  0  0  0  0  0
  -14.7880  -22.6324   33.0174 C   0  0  0  0  0  0  0  0  0  0  0  0
  -14.6181  -22.1434   31.7282 C   0  0  0  0  0  0  0  0  0  0  0  0
  -13.7434  -22.8226   30.8843 C   0  0  0  0  0  0  0  0  0  0  0  0
  -12.9786  -22.1326   29.7549 C   0  0  0  0  0  0  0  0  0  0  0  0
  -13.0723  -21.0103   29.3204 O   0  0  0  0  0  0  0  0  0  0  0  0
  -12.0196  -22.7238   29.2028 N   0  0  0  0  0  0  0  0  0  0  0  0
  -12.0208  -23.5264   27.9853 C   0  0  0  0  0  0  0  0  0  0  0  0
  -10.9092  -22.5648   29.8514 C   0  0  0  0  0  0  0  0  0  0  0  0
  -11.3246  -21.3440   31.2196 C   0  0  0  0  0  0  0  0  0  0  0  0
  -10.2463  -21.4333   32.0014 N   0  0  0  0  0  0  0  0  0  0  0  0
   -9.5482  -20.4744   32.7220 C   0  0  0  0  0  0  0  0  0  0  0  0
   -9.7685  -19.3328   32.9097 O   0  0  0  0  0  0  0  0  0  0  0  0
   -8.1195  -21.4727   33.1816 C   0  0  0  0  0  0  0  0  0  0  0  0
   -8.7191  -23.2341   33.1545 N   0  0  0  0  0  0  0  0  0  0  0  0
  -10.1490  -23.4885   33.1005 N   0  0  0  0  0  0  0  0  0  0  0  0
  -10.2594  -24.8122   33.0818 C   0  0  0  0  0  0  0  0  0  0  0  0
   -9.1065  -25.3076   32.5628 C   0  0  0  0  0  0  0  0  0  0  0  0
   -8.1784  -24.3770   32.5784 N   0  0  0  0  0  0  0  0  0  0  0  0
  -12.0761  -26.3505   28.4831 H   0  0  0  0  0  0  0  0  0  0  0  0
  -11.8114  -27.6792   29.6135 H   0  0  0  0  0  0  0  0  0  0  0  0
  -10.4377  -26.7662   29.0007 H   0  0  0  0  0  0  0  0  0  0  0  0
  -11.5209  -26.2356   31.4615 H   0  0  0  0  0  0  0  0  0  0  0  0
  -10.5941  -25.2062   30.4597 H   0  0  0  0  0  0  0  0  0  0  0  0
  -14.1517  -24.1465   34.4114 H   0  0  0  0  0  0  0  0  0  0  0  0
  -15.4573  -22.1465   33.7174 H   0  0  0  0  0  0  0  0  0  0  0  0
  -15.1091  -21.2342   31.4120 H   0  0  0  0  0  0  0  0  0  0  0  0
  -11.9912  -22.8375   27.1358 H   0  0  0  0  0  0  0  0  0  0  0  0
  -12.9052  -24.1483   27.8836 H   0  0  0  0  0  0  0  0  0  0  0  0
  -11.1281  -24.1580   27.9432 H   0  0  0  0  0  0  0  0  0  0  0  0
  -10.3438  -22.0040   29.1052 H   0  0  0  0  0  0  0  0  0  0  0  0
  -10.5755  -23.5008   30.2456 H   0  0  0  0  0  0  0  0  0  0  0  0
  -11.1543  -20.5359   30.5982 H   0  0  0  0  0  0  0  0  0  0  0  0
  -12.2031  -21.4237   31.8326 H   0  0  0  0  0  0  0  0  0  0  0  0
   -9.8218  -22.3031   32.1325 H   0  0  0  0  0  0  0  0  0  0  0  0
   -7.1273  -21.2630   32.7655 H   0  0  0  0  0  0  0  0  0  0  0  0
   -7.7904  -21.2281   34.1457 H   0  0  0  0  0  0  0  0  0  0  0  0
  -11.1928  -25.2900   33.3274 H   0  0  0  0  0  0  0  0  0  0  0  0
   -8.8673  -26.2549   32.1252 H   0  0  0  0  0  0  0  0  0  0  0  0
  1  2  1  0
  2  3  1  0
  3  4  1  0
  4  5  2  0
  5  6  1  0
  6  7  2  0
  7  8  1  0
  8  9  2  0
  9 10  1  0
 10 11  2  0
 10 12  1  0
 12 13  1  0
 12 14  1  0
 14 15  1  0
 15 16  1  0
 16 17  1  0
 17 18  2  0
 17 19  1  0
 19 20  1  0
 20 21  1  0
 21 22  2  0
 22 23  1  0
 23 24  2  0
  9  4  1  0
 24 20  1  0
  1 25  1  0
  1 26  1  0
  1 27  1  0
  2 28  1  0
  2 29  1  0
  6 30  1  0
  7 31  1  0
  8 32  1  0
 13 33  1  0
 13 34  1  0
 13 35  1  0
 14 36  1  0
 14 37  1  0
 15 38  1  0
 15 39  1  0
 16 40  1  0
 19 41  1  0
 19 42  1  0
 22 43  1  0
 23 44  1  0
M  END
>  <Energy>  (1331) 
337.11663517767676

>  <compound_id>  (1331) 
69264

>  <target_id>  (1331) 
1

>  <reference_id>  (1331) 
82

>  <inspiration_ids>  (1331) 
[82, 54]

>  <energy_score>  (1331) 
256.61270940429563

>  <distance_score>  (1331) 
2.7963236916878715

>  <path>  (1331) 
/opt/xchem-fragalysis-2/maxwin/BulkDock/SCRATCH/511022/C69264-P82/C69264-P82.minimised.mol

>  <scratch_subdir>  (1331) 
/opt/xchem-fragalysis-2/maxwin/BulkDock/SCRATCH/511022/C69264-P82

>  <fragmenstein_runtime>  (1331) 
12.999114036560059

>  <fragmenstein_outcome>  (1331) 
too moved

>  <fragmenstein_mode>  (1331) 
expansion

>  <fragmenstein_error>  (1331) 


$$$$
C69264-P54
     RDKit          3D

 44 45  0  0  0  0  0  0  0  0999 V2000
   -9.3819  -27.8914   26.8853 C   0  0  0  0  0  0  0  0  0  0  0  0
  -10.3239  -28.6333   27.8144 C   0  0  0  0  0  0  0  0  0  0  0  0
  -11.6121  -28.0027   27.7656 O   0  0  0  0  0  0  0  0  0  0  0  0
  -12.0465  -27.8296   29.0516 C   0  0  0  0  0  0  0  0  0  0  0  0
  -12.2170  -28.9683   29.7675 N   0  0  0  0  0  0  0  0  0  0  0  0
  -12.4087  -28.8400   31.0963 C   0  0  0  0  0  0  0  0  0  0  0  0
  -12.3098  -27.6373   31.7594 C   0  0  0  0  0  0  0  0  0  0  0  0
  -12.1464  -26.4989   30.9830 C   0  0  0  0  0  0  0  0  0  0  0  0
  -12.1479  -26.5689   29.5917 C   0  0  0  0  0  0  0  0  0  0  0  0
  -12.3870  -25.3152   28.8509 C   0  0  0  0  0  0  0  0  0  0  0  0
  -13.0578  -24.4344   29.3846 O   0  0  0  0  0  0  0  0  0  0  0  0
  -11.9492  -25.1426   27.5658 N   0  0  0  0  0  0  0  0  0  0  0  0
  -12.7673  -25.5890   26.4601 C   0  0  0  0  0  0  0  0  0  0  0  0
  -10.6638  -24.5090   27.3230 C   0  0  0  0  0  0  0  0  0  0  0  0
  -10.6705  -22.9956   27.5895 C   0  0  0  0  0  0  0  0  0  0  0  0
  -10.8294  -22.6571   28.9843 N   0  0  0  0  0  0  0  0  0  0  0  0
  -11.0074  -21.3873   29.6321 C   0  0  0  0  0  0  0  0  0  0  0  0
  -10.9910  -20.2728   29.1885 O   0  0  0  0  0  0  0  0  0  0  0  0
  -11.3167  -21.5767   31.1102 C   0  0  0  0  0  0  0  0  0  0  0  0
  -10.2959  -22.3203   31.8193 N   0  0  0  0  0  0  0  0  0  0  0  0
   -9.5199  -21.7415   32.7589 N   0  0  0  0  0  0  0  0  0  0  0  0
   -8.7296  -22.7501   33.1255 C   0  0  0  0  0  0  0  0  0  0  0  0
   -9.0925  -23.9090   32.4359 C   0  0  0  0  0  0  0  0  0  0  0  0
  -10.0930  -23.6483   31.5876 N   0  0  0  0  0  0  0  0  0  0  0  0
   -8.4339  -28.4247   26.7842 H   0  0  0  0  0  0  0  0  0  0  0  0
   -9.1599  -26.8943   27.2653 H   0  0  0  0  0  0  0  0  0  0  0  0
   -9.8271  -27.7384   25.8996 H   0  0  0  0  0  0  0  0  0  0  0  0
   -9.8806  -28.6550   28.8145 H   0  0  0  0  0  0  0  0  0  0  0  0
  -10.4510  -29.6778   27.5210 H   0  0  0  0  0  0  0  0  0  0  0  0
  -12.5949  -29.7685   31.6297 H   0  0  0  0  0  0  0  0  0  0  0  0
  -12.3679  -27.5917   32.8398 H   0  0  0  0  0  0  0  0  0  0  0  0
  -12.0017  -25.5340   31.4446 H   0  0  0  0  0  0  0  0  0  0  0  0
  -13.0965  -24.7105   25.9000 H   0  0  0  0  0  0  0  0  0  0  0  0
  -12.1824  -26.2521   25.8186 H   0  0  0  0  0  0  0  0  0  0  0  0
  -13.6521  -26.1202   26.8240 H   0  0  0  0  0  0  0  0  0  0  0  0
   -9.9310  -24.9721   27.9924 H   0  0  0  0  0  0  0  0  0  0  0  0
  -10.3709  -24.7102   26.2888 H   0  0  0  0  0  0  0  0  0  0  0  0
   -9.7056  -22.5872   27.2907 H   0  0  0  0  0  0  0  0  0  0  0  0
  -11.4550  -22.4849   27.0223 H   0  0  0  0  0  0  0  0  0  0  0  0
  -10.8249  -23.3938   29.6920 H   0  0  0  0  0  0  0  0  0  0  0  0
  -11.4348  -20.6026   31.5958 H   0  0  0  0  0  0  0  0  0  0  0  0
  -12.2494  -22.1237   31.1861 H   0  0  0  0  0  0  0  0  0  0  0  0
   -7.9488  -22.5932   33.8564 H   0  0  0  0  0  0  0  0  0  0  0  0
   -8.6721  -24.9006   32.5034 H   0  0  0  0  0  0  0  0  0  0  0  0
  1  2  1  0
  2  3  1  0
  3  4  1  0
  4  5  2  0
  5  6  1  0
  6  7  2  0
  7  8  1  0
  8  9  2  0
  9 10  1  0
 10 11  2  0
 10 12  1  0
 12 13  1  0
 12 14  1  0
 14 15  1  0
 15 16  1  0
 16 17  1  0
 17 18  2  0
 17 19  1  0
 19 20  1  0
 20 21  1  0
 21 22  2  0
 22 23  1  0
 23 24  2  0
  9  4  1  0
 24 20  1  0
  1 25  1  0
  1 26  1  0
  1 27  1  0
  2 28  1  0
  2 29  1  0
  6 30  1  0
  7 31  1  0
  8 32  1  0
 13 33  1  0
 13 34  1  0
 13 35  1  0
 14 36  1  0
 14 37  1  0
 15 38  1  0
 15 39  1  0
 16 40  1  0
 19 41  1  0
 19 42  1  0
 22 43  1  0
 23 44  1  0
M  END
>  <Energy>  (1332) 
72.244114629289967

>  <compound_id>  (1332) 
69264

>  <target_id>  (1332) 
1

>  <reference_id>  (1332) 
54

>  <inspiration_ids>  (1332) 
[82, 54]

>  <energy_score>  (1332) 
-8.259811144093362

>  <distance_score>  (1332) 
3.6043854551400987

>  <path>  (1332) 
/opt/xchem-fragalysis-2/maxwin/BulkDock/SCRATCH/511022/C69264-P54/C69264-P54.minimised.mol

>  <scratch_subdir>  (1332) 
/opt/xchem-fragalysis-2/maxwin/BulkDock/SCRATCH/511022/C69264-P54

>  <fragmenstein_runtime>  (1332) 
9.369795799255371

>  <fragmenstein_outcome>  (1332) 
too moved

>  <fragmenstein_mode>  (1332) 
expansion

>  <fragmenstein_error>  (1332) 


$$$$
C69266-P82
     RDKit          3D

 38 39  0  0  0  0  0  0  0  0999 V2000
  -11.2837  -25.1885   25.9858 C   0  0  0  0  0  0  0  0  0  0  0  0
  -12.6568  -25.1551   26.5805 N   0  0  0  0  0  0  0  0  0  0  0  0
  -12.4147  -23.6605   26.5066 C   0  0  0  0  0  0  0  0  0  0  0  0
  -11.6804  -22.9535   27.6600 C   0  0  0  0  0  0  0  0  0  0  0  0
  -12.1669  -23.2388   28.9790 N   0  0  0  0  0  0  0  0  0  0  0  0
  -12.0271  -22.5152   30.2101 C   0  0  0  0  0  0  0  0  0  0  0  0
  -11.5364  -21.4479   30.4363 O   0  0  0  0  0  0  0  0  0  0  0  0
  -12.5168  -23.3415   31.4021 C   0  0  0  0  0  0  0  0  0  0  0  0
  -11.5218  -24.3518   31.6854 N   0  0  0  0  0  0  0  0  0  0  0  0
  -11.3106  -25.4787   30.9599 C   0  0  0  0  0  0  0  0  0  0  0  0
  -10.1686  -26.0181   31.2839 N   0  0  0  0  0  0  0  0  0  0  0  0
   -9.7449  -25.2207   32.3026 C   0  0  0  0  0  0  0  0  0  0  0  0
  -10.5319  -24.1745   32.5772 N   0  0  0  0  0  0  0  0  0  0  0  0
  -13.5333  -25.9909   25.8353 C   0  0  0  0  0  0  0  0  0  0  0  0
  -14.2393  -25.7413   24.8980 O   0  0  0  0  0  0  0  0  0  0  0  0
  -13.6356  -27.3754   26.3831 C   0  0  0  0  0  0  0  0  0  0  0  0
  -14.5573  -28.2338   25.8016 C   0  0  0  0  0  0  0  0  0  0  0  0
  -14.8105  -29.4918   26.2352 N   0  0  0  0  0  0  0  0  0  0  0  0
  -14.0993  -29.9413   27.2809 C   0  0  0  0  0  0  0  0  0  0  0  0
  -13.1568  -29.1750   27.9244 C   0  0  0  0  0  0  0  0  0  0  0  0
  -12.9322  -27.8777   27.4759 C   0  0  0  0  0  0  0  0  0  0  0  0
  -12.0723  -27.1363   28.2337 O   0  0  0  0  0  0  0  0  0  0  0  0
  -11.0827  -26.2524   25.7845 H   0  0  0  0  0  0  0  0  0  0  0  0
  -10.5028  -24.9237   26.7042 H   0  0  0  0  0  0  0  0  0  0  0  0
  -11.1631  -24.7417   24.9905 H   0  0  0  0  0  0  0  0  0  0  0  0
  -13.4462  -23.3204   26.5966 H   0  0  0  0  0  0  0  0  0  0  0  0
  -12.1821  -23.2480   25.5105 H   0  0  0  0  0  0  0  0  0  0  0  0
  -10.6206  -23.2059   27.6926 H   0  0  0  0  0  0  0  0  0  0  0  0
  -11.7319  -21.8732   27.5233 H   0  0  0  0  0  0  0  0  0  0  0  0
  -12.7126  -24.0791   29.1489 H   0  0  0  0  0  0  0  0  0  0  0  0
  -13.4704  -23.8260   31.2005 H   0  0  0  0  0  0  0  0  0  0  0  0
  -12.6306  -22.7030   32.2840 H   0  0  0  0  0  0  0  0  0  0  0  0
  -12.0022  -25.8428   30.2242 H   0  0  0  0  0  0  0  0  0  0  0  0
   -8.8278  -25.4039   32.8445 H   0  0  0  0  0  0  0  0  0  0  0  0
  -15.1630  -27.9322   24.9485 H   0  0  0  0  0  0  0  0  0  0  0  0
  -14.3234  -30.9556   27.5993 H   0  0  0  0  0  0  0  0  0  0  0  0
  -12.6611  -29.5770   28.7921 H   0  0  0  0  0  0  0  0  0  0  0  0
  -12.1523  -26.2060   27.9464 H   0  0  0  0  0  0  0  0  0  0  0  0
  1  2  1  0
  2  3  1  0
  3  4  1  0
  4  5  1  0
  5  6  1  0
  6  7  2  0
  6  8  1  0
  8  9  1  0
  9 10  1  0
 10 11  2  0
 11 12  1  0
 12 13  2  0
  2 14  1  0
 14 15  2  0
 14 16  1  0
 16 17  2  0
 17 18  1  0
 18 19  2  0
 19 20  1  0
 20 21  2  0
 21 22  1  0
 13  9  1  0
 21 16  1  0
  1 23  1  0
  1 24  1  0
  1 25  1  0
  3 26  1  0
  3 27  1  0
  4 28  1  0
  4 29  1  0
  5 30  1  0
  8 31  1  0
  8 32  1  0
 10 33  1  0
 12 34  1  0
 17 35  1  0
 19 36  1  0
 20 37  1  0
 22 38  1  0
M  END
>  <Energy>  (1333) 
117.34007565563974

>  <compound_id>  (1333) 
69266

>  <target_id>  (1333) 
1

>  <reference_id>  (1333) 
82

>  <inspiration_ids>  (1333) 
[82, 54]

>  <energy_score>  (1333) 
34.06635101321052

>  <distance_score>  (1333) 
4.786388444448365

>  <path>  (1333) 
/opt/xchem-fragalysis-2/maxwin/BulkDock/SCRATCH/511022/C69266-P82/C69266-P82.minimised.mol

>  <scratch_subdir>  (1333) 
/opt/xchem-fragalysis-2/maxwin/BulkDock/SCRATCH/511022/C69266-P82

>  <fragmenstein_runtime>  (1333) 
11.030253410339355

>  <fragmenstein_outcome>  (1333) 
too moved

>  <fragmenstein_mode>  (1333) 
expansion

>  <fragmenstein_error>  (1333) 


$$$$
C69266-P54
     RDKit          3D

 38 39  0  0  0  0  0  0  0  0999 V2000
  -10.4840  -24.9280   27.4775 C   0  0  0  0  0  0  0  0  0  0  0  0
  -11.8388  -24.6194   28.0469 N   0  0  0  0  0  0  0  0  0  0  0  0
  -11.7253  -23.4386   27.1050 C   0  0  0  0  0  0  0  0  0  0  0  0
  -11.1116  -22.1752   27.7301 C   0  0  0  0  0  0  0  0  0  0  0  0
  -11.3378  -22.0653   29.1470 N   0  0  0  0  0  0  0  0  0  0  0  0
  -11.2427  -20.9378   30.0306 C   0  0  0  0  0  0  0  0  0  0  0  0
  -11.0285  -19.7855   29.8024 O   0  0  0  0  0  0  0  0  0  0  0  0
  -11.3980  -21.3558   31.4797 C   0  0  0  0  0  0  0  0  0  0  0  0
  -10.2618  -22.0564   32.0470 N   0  0  0  0  0  0  0  0  0  0  0  0
   -9.3961  -22.9116   31.4361 C   0  0  0  0  0  0  0  0  0  0  0  0
   -8.7586  -23.6193   32.3369 N   0  0  0  0  0  0  0  0  0  0  0  0
   -9.1455  -23.0382   33.5030 C   0  0  0  0  0  0  0  0  0  0  0  0
  -10.1062  -22.1245   33.3866 N   0  0  0  0  0  0  0  0  0  0  0  0
  -12.6601  -25.7671   27.9942 C   0  0  0  0  0  0  0  0  0  0  0  0
  -13.4172  -26.1475   27.1412 O   0  0  0  0  0  0  0  0  0  0  0  0
  -12.6090  -26.5736   29.2661 C   0  0  0  0  0  0  0  0  0  0  0  0
  -13.2624  -27.8006   29.2565 C   0  0  0  0  0  0  0  0  0  0  0  0
  -13.3111  -28.6622   30.3039 N   0  0  0  0  0  0  0  0  0  0  0  0
  -12.6884  -28.2903   31.4346 C   0  0  0  0  0  0  0  0  0  0  0  0
  -12.0182  -27.0911   31.5647 C   0  0  0  0  0  0  0  0  0  0  0  0
  -11.9756  -26.2272   30.4674 C   0  0  0  0  0  0  0  0  0  0  0  0
  -11.3317  -25.0309   30.6354 O   0  0  0  0  0  0  0  0  0  0  0  0
   -9.6929  -24.2157   27.7344 H   0  0  0  0  0  0  0  0  0  0  0  0
  -10.1592  -25.8435   27.9901 H   0  0  0  0  0  0  0  0  0  0  0  0
  -10.4936  -25.2534   26.4251 H   0  0  0  0  0  0  0  0  0  0  0  0
  -11.4353  -23.6066   26.0555 H   0  0  0  0  0  0  0  0  0  0  0  0
  -12.7892  -23.1932   26.9687 H   0  0  0  0  0  0  0  0  0  0  0  0
  -10.0257  -22.1706   27.6069 H   0  0  0  0  0  0  0  0  0  0  0  0
  -11.4800  -21.2693   27.2462 H   0  0  0  0  0  0  0  0  0  0  0  0
  -11.6163  -22.8885   29.6851 H   0  0  0  0  0  0  0  0  0  0  0  0
  -12.2351  -22.0345   31.5347 H   0  0  0  0  0  0  0  0  0  0  0  0
  -11.6048  -20.4767   32.0988 H   0  0  0  0  0  0  0  0  0  0  0  0
   -9.2950  -23.0212   30.3665 H   0  0  0  0  0  0  0  0  0  0  0  0
   -8.7407  -23.3075   34.4658 H   0  0  0  0  0  0  0  0  0  0  0  0
  -13.7932  -28.1530   28.3744 H   0  0  0  0  0  0  0  0  0  0  0  0
  -12.7435  -29.0053   32.2516 H   0  0  0  0  0  0  0  0  0  0  0  0
  -11.5388  -26.8569   32.5071 H   0  0  0  0  0  0  0  0  0  0  0  0
  -10.6811  -25.1093   31.3627 H   0  0  0  0  0  0  0  0  0  0  0  0
  1  2  1  0
  2  3  1  0
  3  4  1  0
  4  5  1  0
  5  6  1  0
  6  7  2  0
  6  8  1  0
  8  9  1  0
  9 10  1  0
 10 11  2  0
 11 12  1  0
 12 13  2  0
  2 14  1  0
 14 15  2  0
 14 16  1  0
 16 17  2  0
 17 18  1  0
 18 19  2  0
 19 20  1  0
 20 21  2  0
 21 22  1  0
 13  9  1  0
 21 16  1  0
  1 23  1  0
  1 24  1  0
  1 25  1  0
  3 26  1  0
  3 27  1  0
  4 28  1  0
  4 29  1  0
  5 30  1  0
  8 31  1  0
  8 32  1  0
 10 33  1  0
 12 34  1  0
 17 35  1  0
 19 36  1  0
 20 37  1  0
 22 38  1  0
M  END
>  <Energy>  (1334) 
109.7840898336085

>  <compound_id>  (1334) 
69266

>  <target_id>  (1334) 
1

>  <reference_id>  (1334) 
54

>  <inspiration_ids>  (1334) 
[82, 54]

>  <energy_score>  (1334) 
26.510365191176106

>  <distance_score>  (1334) 
2.7394518649387414

>  <path>  (1334) 
/opt/xchem-fragalysis-2/maxwin/BulkDock/SCRATCH/511022/C69266-P54/C69266-P54.minimised.mol

>  <scratch_subdir>  (1334) 
/opt/xchem-fragalysis-2/maxwin/BulkDock/SCRATCH/511022/C69266-P54

>  <fragmenstein_runtime>  (1334) 
8.851845264434814

>  <fragmenstein_outcome>  (1334) 
too moved

>  <fragmenstein_mode>  (1334) 
expansion

>  <fragmenstein_error>  (1334) 


$$$$
C69267-P82
     RDKit          3D

 38 39  0  0  0  0  0  0  0  0999 V2000
  -14.5797  -21.7625   31.7430 C   0  0  0  0  0  0  0  0  0  0  0  0
  -13.6660  -22.6389   30.9676 N   0  0  0  0  0  0  0  0  0  0  0  0
  -13.1496  -22.9435   32.3498 C   0  0  0  0  0  0  0  0  0  0  0  0
  -11.7121  -22.4474   32.6127 C   0  0  0  0  0  0  0  0  0  0  0  0
  -10.8376  -23.4827   32.1415 N   0  0  0  0  0  0  0  0  0  0  0  0
   -9.4989  -23.7941   32.4783 C   0  0  0  0  0  0  0  0  0  0  0  0
   -8.7272  -23.2318   33.1759 O   0  0  0  0  0  0  0  0  0  0  0  0
   -8.9878  -25.1012   31.9580 C   0  0  0  0  0  0  0  0  0  0  0  0
   -9.8027  -26.0392   32.6406 N   0  0  0  0  0  0  0  0  0  0  0  0
  -10.8558  -26.4423   31.9222 C   0  0  0  0  0  0  0  0  0  0  0  0
  -11.8593  -25.7868   32.4551 N   0  0  0  0  0  0  0  0  0  0  0  0
  -11.4270  -25.4574   33.7161 C   0  0  0  0  0  0  0  0  0  0  0  0
  -10.1694  -25.8078   33.9390 N   0  0  0  0  0  0  0  0  0  0  0  0
  -12.5721  -22.3151   30.0809 C   0  0  0  0  0  0  0  0  0  0  0  0
  -12.0672  -21.2529   29.8170 O   0  0  0  0  0  0  0  0  0  0  0  0
  -12.0033  -23.4289   29.2482 C   0  0  0  0  0  0  0  0  0  0  0  0
  -11.3246  -23.0656   28.0905 C   0  0  0  0  0  0  0  0  0  0  0  0
  -10.8521  -23.9304   27.1554 N   0  0  0  0  0  0  0  0  0  0  0  0
  -11.1115  -25.2260   27.3529 C   0  0  0  0  0  0  0  0  0  0  0  0
  -11.7874  -25.6955   28.4554 C   0  0  0  0  0  0  0  0  0  0  0  0
  -12.0406  -27.0243   28.6057 O   0  0  0  0  0  0  0  0  0  0  0  0
  -12.2330  -24.7871   29.4108 C   0  0  0  0  0  0  0  0  0  0  0  0
  -15.3785  -22.3489   32.2266 H   0  0  0  0  0  0  0  0  0  0  0  0
  -14.1331  -21.0178   32.4100 H   0  0  0  0  0  0  0  0  0  0  0  0
  -15.1270  -21.1797   30.9951 H   0  0  0  0  0  0  0  0  0  0  0  0
  -13.1992  -24.0307   32.3390 H   0  0  0  0  0  0  0  0  0  0  0  0
  -13.7460  -22.7719   33.2711 H   0  0  0  0  0  0  0  0  0  0  0  0
  -11.4468  -21.4730   32.1998 H   0  0  0  0  0  0  0  0  0  0  0  0
  -11.6033  -22.3899   33.6950 H   0  0  0  0  0  0  0  0  0  0  0  0
  -11.2205  -24.2347   31.5824 H   0  0  0  0  0  0  0  0  0  0  0  0
   -7.9708  -25.3157   32.2758 H   0  0  0  0  0  0  0  0  0  0  0  0
   -9.1073  -25.1737   30.8738 H   0  0  0  0  0  0  0  0  0  0  0  0
  -10.7824  -26.9476   30.9695 H   0  0  0  0  0  0  0  0  0  0  0  0
  -12.0232  -24.9003   34.4066 H   0  0  0  0  0  0  0  0  0  0  0  0
  -11.1585  -22.0200   27.8453 H   0  0  0  0  0  0  0  0  0  0  0  0
  -10.7648  -25.8917   26.5744 H   0  0  0  0  0  0  0  0  0  0  0  0
  -11.8065  -27.4851   27.7830 H   0  0  0  0  0  0  0  0  0  0  0  0
  -12.8189  -25.1225   30.2525 H   0  0  0  0  0  0  0  0  0  0  0  0
  1  2  1  0
  2  3  1  0
  3  4  1  0
  4  5  1  0
  5  6  1  0
  6  7  2  0
  6  8  1  0
  8  9  1  0
  9 10  1  0
 10 11  2  0
 11 12  1  0
 12 13  2  0
  2 14  1  0
 14 15  2  0
 14 16  1  0
 16 17  2  0
 17 18  1  0
 18 19  2  0
 19 20  1  0
 20 21  1  0
 20 22  2  0
 13  9  1  0
 22 16  1  0
  1 23  1  0
  1 24  1  0
  1 25  1  0
  3 26  1  0
  3 27  1  0
  4 28  1  0
  4 29  1  0
  5 30  1  0
  8 31  1  0
  8 32  1  0
 10 33  1  0
 12 34  1  0
 17 35  1  0
 19 36  1  0
 21 37  1  0
 22 38  1  0
M  END
>  <Energy>  (1335) 
193.06298980586064

>  <compound_id>  (1335) 
69267

>  <target_id>  (1335) 
1

>  <reference_id>  (1335) 
82

>  <inspiration_ids>  (1335) 
[82, 54]

>  <energy_score>  (1335) 
119.25740917734606

>  <distance_score>  (1335) 
3.095130311725902

>  <path>  (1335) 
/opt/xchem-fragalysis-2/maxwin/BulkDock/SCRATCH/511022/C69267-P82/C69267-P82.minimised.mol

>  <scratch_subdir>  (1335) 
/opt/xchem-fragalysis-2/maxwin/BulkDock/SCRATCH/511022/C69267-P82

>  <fragmenstein_runtime>  (1335) 
7.4075071811676025

>  <fragmenstein_outcome>  (1335) 
too moved

>  <fragmenstein_mode>  (1335) 
expansion

>  <fragmenstein_error>  (1335) 


$$$$
C69267-P54
     RDKit          3D

 38 39  0  0  0  0  0  0  0  0999 V2000
  -10.8108  -21.7534   32.0865 C   0  0  0  0  0  0  0  0  0  0  0  0
  -11.0295  -22.3385   30.7312 N   0  0  0  0  0  0  0  0  0  0  0  0
   -9.6867  -22.9964   31.0371 C   0  0  0  0  0  0  0  0  0  0  0  0
   -9.7829  -24.4232   31.6016 C   0  0  0  0  0  0  0  0  0  0  0  0
  -10.8586  -25.2327   31.0589 N   0  0  0  0  0  0  0  0  0  0  0  0
  -11.0588  -25.7742   29.7497 C   0  0  0  0  0  0  0  0  0  0  0  0
  -10.4288  -25.6336   28.7405 O   0  0  0  0  0  0  0  0  0  0  0  0
  -12.3332  -26.6113   29.6639 C   0  0  0  0  0  0  0  0  0  0  0  0
  -12.5670  -27.4605   30.8046 N   0  0  0  0  0  0  0  0  0  0  0  0
  -12.6287  -28.8109   30.8453 C   0  0  0  0  0  0  0  0  0  0  0  0
  -13.0340  -29.1861   32.0351 N   0  0  0  0  0  0  0  0  0  0  0  0
  -13.2026  -28.0135   32.6996 C   0  0  0  0  0  0  0  0  0  0  0  0
  -12.9315  -26.9159   31.9860 N   0  0  0  0  0  0  0  0  0  0  0  0
  -10.9954  -21.7396   29.4494 C   0  0  0  0  0  0  0  0  0  0  0  0
  -10.6946  -20.6300   29.1148 O   0  0  0  0  0  0  0  0  0  0  0  0
  -11.4822  -22.6745   28.4248 C   0  0  0  0  0  0  0  0  0  0  0  0
  -10.7803  -22.9203   27.2660 C   0  0  0  0  0  0  0  0  0  0  0  0
  -11.2092  -23.7683   26.2976 N   0  0  0  0  0  0  0  0  0  0  0  0
  -12.4037  -24.3636   26.5097 C   0  0  0  0  0  0  0  0  0  0  0  0
  -13.1700  -24.1647   27.6322 C   0  0  0  0  0  0  0  0  0  0  0  0
  -14.3753  -24.7614   27.8061 O   0  0  0  0  0  0  0  0  0  0  0  0
  -12.6777  -23.3431   28.6224 C   0  0  0  0  0  0  0  0  0  0  0  0
  -10.7980  -22.4642   32.9208 H   0  0  0  0  0  0  0  0  0  0  0  0
  -11.7251  -21.1661   32.2516 H   0  0  0  0  0  0  0  0  0  0  0  0
  -10.0365  -20.9807   32.1445 H   0  0  0  0  0  0  0  0  0  0  0  0
   -8.8835  -22.4102   31.5166 H   0  0  0  0  0  0  0  0  0  0  0  0
   -9.2363  -23.1551   30.0422 H   0  0  0  0  0  0  0  0  0  0  0  0
   -9.8861  -24.4146   32.6890 H   0  0  0  0  0  0  0  0  0  0  0  0
   -8.8409  -24.9195   31.3833 H   0  0  0  0  0  0  0  0  0  0  0  0
  -11.6388  -25.5010   31.6501 H   0  0  0  0  0  0  0  0  0  0  0  0
  -12.2923  -27.2455   28.7720 H   0  0  0  0  0  0  0  0  0  0  0  0
  -13.2027  -25.9596   29.6003 H   0  0  0  0  0  0  0  0  0  0  0  0
  -12.3938  -29.4613   30.0141 H   0  0  0  0  0  0  0  0  0  0  0  0
  -13.5409  -27.9605   33.7263 H   0  0  0  0  0  0  0  0  0  0  0  0
   -9.8141  -22.4679   27.1008 H   0  0  0  0  0  0  0  0  0  0  0  0
  -12.7410  -25.0547   25.7494 H   0  0  0  0  0  0  0  0  0  0  0  0
  -14.8538  -24.7314   26.9570 H   0  0  0  0  0  0  0  0  0  0  0  0
  -13.2353  -23.1534   29.5216 H   0  0  0  0  0  0  0  0  0  0  0  0
  1  2  1  0
  2  3  1  0
  3  4  1  0
  4  5  1  0
  5  6  1  0
  6  7  2  0
  6  8  1  0
  8  9  1  0
  9 10  1  0
 10 11  2  0
 11 12  1  0
 12 13  2  0
  2 14  1  0
 14 15  2  0
 14 16  1  0
 16 17  2  0
 17 18  1  0
 18 19  2  0
 19 20  1  0
 20 21  1  0
 20 22  2  0
 13  9  1  0
 22 16  1  0
  1 23  1  0
  1 24  1  0
  1 25  1  0
  3 26  1  0
  3 27  1  0
  4 28  1  0
  4 29  1  0
  5 30  1  0
  8 31  1  0
  8 32  1  0
 10 33  1  0
 12 34  1  0
 17 35  1  0
 19 36  1  0
 21 37  1  0
 22 38  1  0
M  END
>  <Energy>  (1336) 
119.67987491068301

>  <compound_id>  (1336) 
69267

>  <target_id>  (1336) 
1

>  <reference_id>  (1336) 
54

>  <inspiration_ids>  (1336) 
[82, 54]

>  <energy_score>  (1336) 
45.87429428216831

>  <distance_score>  (1336) 
3.0207729265905745

>  <path>  (1336) 
/opt/xchem-fragalysis-2/maxwin/BulkDock/SCRATCH/511022/C69267-P54/C69267-P54.minimised.mol

>  <scratch_subdir>  (1336) 
/opt/xchem-fragalysis-2/maxwin/BulkDock/SCRATCH/511022/C69267-P54

>  <fragmenstein_runtime>  (1336) 
8.495375633239746

>  <fragmenstein_outcome>  (1336) 
too moved

>  <fragmenstein_mode>  (1336) 
expansion

>  <fragmenstein_error>  (1336) 


$$$$
C69268-P82
     RDKit          3D

 41 42  0  0  0  0  0  0  0  0999 V2000
  -13.9895  -26.5065   26.8488 C   0  0  0  0  0  0  0  0  0  0  0  0
  -13.1942  -26.0778   25.6853 N   0  0  0  0  0  0  0  0  0  0  0  0
  -13.2274  -27.5287   25.4022 C   0  0  0  0  0  0  0  0  0  0  0  0
  -11.9849  -28.1559   26.1393 C   0  0  0  0  0  0  0  0  0  0  0  0
  -11.4027  -27.2954   27.1893 N   0  0  0  0  0  0  0  0  0  0  0  0
  -11.5663  -27.3108   28.6357 C   0  0  0  0  0  0  0  0  0  0  0  0
  -12.2779  -27.9772   29.3327 O   0  0  0  0  0  0  0  0  0  0  0  0
  -10.5477  -26.3516   29.3076 C   0  0  0  0  0  0  0  0  0  0  0  0
  -11.0298  -25.5644   30.4908 C   0  0  0  0  0  0  0  0  0  0  0  0
  -10.3261  -25.5685   31.6915 C   0  0  0  0  0  0  0  0  0  0  0  0
  -10.6911  -24.8425   32.7767 N   0  0  0  0  0  0  0  0  0  0  0  0
  -11.8265  -24.1304   32.6342 C   0  0  0  0  0  0  0  0  0  0  0  0
  -12.5076  -24.0817   31.4351 C   0  0  0  0  0  0  0  0  0  0  0  0
  -12.0966  -24.7575   30.3340 N   0  0  0  0  0  0  0  0  0  0  0  0
  -13.8273  -24.9891   25.0366 C   0  0  0  0  0  0  0  0  0  0  0  0
  -14.6296  -24.9715   24.1403 O   0  0  0  0  0  0  0  0  0  0  0  0
  -13.2652  -23.6658   25.5515 C   0  0  0  0  0  0  0  0  0  0  0  0
  -12.8705  -23.5550   26.8873 C   0  0  0  0  0  0  0  0  0  0  0  0
  -11.6110  -23.7944   27.3499 C   0  0  0  0  0  0  0  0  0  0  0  0
  -10.7570  -24.1713   26.3858 C   0  0  0  0  0  0  0  0  0  0  0  0
  -10.9939  -24.0147   25.0681 N   0  0  0  0  0  0  0  0  0  0  0  0
  -12.1781  -23.4697   24.7369 C   0  0  0  0  0  0  0  0  0  0  0  0
  -12.2177  -22.6246   23.6307 N   0  0  0  0  0  0  0  0  0  0  0  0
  -13.8433  -25.7274   27.5947 H   0  0  0  0  0  0  0  0  0  0  0  0
  -15.0488  -26.5337   26.5522 H   0  0  0  0  0  0  0  0  0  0  0  0
  -13.8035  -27.4420   27.3935 H   0  0  0  0  0  0  0  0  0  0  0  0
  -12.9915  -27.6023   24.3359 H   0  0  0  0  0  0  0  0  0  0  0  0
  -14.1734  -28.1000   25.4443 H   0  0  0  0  0  0  0  0  0  0  0  0
  -11.1757  -28.2941   25.4191 H   0  0  0  0  0  0  0  0  0  0  0  0
  -12.2532  -29.1205   26.5805 H   0  0  0  0  0  0  0  0  0  0  0  0
  -10.7746  -26.5465   26.9360 H   0  0  0  0  0  0  0  0  0  0  0  0
  -10.0832  -25.6706   28.5970 H   0  0  0  0  0  0  0  0  0  0  0  0
   -9.7344  -26.9860   29.6616 H   0  0  0  0  0  0  0  0  0  0  0  0
   -9.4251  -26.1574   31.8170 H   0  0  0  0  0  0  0  0  0  0  0  0
  -12.1789  -23.6062   33.5145 H   0  0  0  0  0  0  0  0  0  0  0  0
  -13.4283  -23.5200   31.3256 H   0  0  0  0  0  0  0  0  0  0  0  0
  -13.4216  -22.9554   27.5698 H   0  0  0  0  0  0  0  0  0  0  0  0
  -11.3218  -23.6246   28.3729 H   0  0  0  0  0  0  0  0  0  0  0  0
   -9.7655  -24.4343   26.6721 H   0  0  0  0  0  0  0  0  0  0  0  0
  -13.0396  -22.7442   23.0569 H   0  0  0  0  0  0  0  0  0  0  0  0
  -11.3343  -22.6437   23.1231 H   0  0  0  0  0  0  0  0  0  0  0  0
  1  2  1  0
  2  3  1  0
  3  4  1  0
  4  5  1  0
  5  6  1  0
  6  7  2  0
  6  8  1  0
  8  9  1  0
  9 10  2  0
 10 11  1  0
 11 12  2  0
 12 13  1  0
 13 14  2  0
  2 15  1  0
 15 16  2  0
 15 17  1  0
 17 18  2  0
 18 19  1  0
 19 20  2  0
 20 21  1  0
 21 22  2  0
 22 23  1  0
 14  9  1  0
 22 17  1  0
  1 24  1  0
  1 25  1  0
  1 26  1  0
  3 27  1  0
  3 28  1  0
  4 29  1  0
  4 30  1  0
  5 31  1  0
  8 32  1  0
  8 33  1  0
 10 34  1  0
 12 35  1  0
 13 36  1  0
 18 37  1  0
 19 38  1  0
 20 39  1  0
 23 40  1  0
 23 41  1  0
M  END
>  <Energy>  (1337) 
219.76815076213995

>  <compound_id>  (1337) 
69268

>  <target_id>  (1337) 
1

>  <reference_id>  (1337) 
82

>  <inspiration_ids>  (1337) 
[82, 54]

>  <energy_score>  (1337) 
104.74472734766954

>  <distance_score>  (1337) 
2.9446799208845054

>  <path>  (1337) 
/opt/xchem-fragalysis-2/maxwin/BulkDock/SCRATCH/511022/C69268-P82/C69268-P82.minimised.mol

>  <scratch_subdir>  (1337) 
/opt/xchem-fragalysis-2/maxwin/BulkDock/SCRATCH/511022/C69268-P82

>  <fragmenstein_runtime>  (1337) 
13.55825924873352

>  <fragmenstein_outcome>  (1337) 
too moved

>  <fragmenstein_mode>  (1337) 
expansion

>  <fragmenstein_error>  (1337) 


$$$$
C69268-P54
     RDKit          3D

 41 42  0  0  0  0  0  0  0  0999 V2000
  -15.2868  -27.9873   27.1275 C   0  0  0  0  0  0  0  0  0  0  0  0
  -16.0683  -26.8968   27.7887 N   0  0  0  0  0  0  0  0  0  0  0  0
  -16.6786  -28.0905   28.5419 C   0  0  0  0  0  0  0  0  0  0  0  0
  -16.3901  -28.1012   30.0672 C   0  0  0  0  0  0  0  0  0  0  0  0
  -15.0101  -28.3367   30.4288 N   0  0  0  0  0  0  0  0  0  0  0  0
  -14.2729  -27.9855   31.6128 C   0  0  0  0  0  0  0  0  0  0  0  0
  -14.6327  -27.4780   32.6358 O   0  0  0  0  0  0  0  0  0  0  0  0
  -12.7886  -28.3026   31.4244 C   0  0  0  0  0  0  0  0  0  0  0  0
  -12.0563  -27.1748   30.7498 C   0  0  0  0  0  0  0  0  0  0  0  0
  -11.8122  -27.1817   29.3835 C   0  0  0  0  0  0  0  0  0  0  0  0
  -11.1674  -26.1795   28.7367 N   0  0  0  0  0  0  0  0  0  0  0  0
  -10.7897  -25.1352   29.5118 C   0  0  0  0  0  0  0  0  0  0  0  0
  -11.0115  -25.1188   30.8693 C   0  0  0  0  0  0  0  0  0  0  0  0
  -11.6317  -26.1401   31.5122 N   0  0  0  0  0  0  0  0  0  0  0  0
  -15.1869  -25.8624   28.2362 C   0  0  0  0  0  0  0  0  0  0  0  0
  -14.6278  -25.7140   29.2904 O   0  0  0  0  0  0  0  0  0  0  0  0
  -14.8432  -24.8714   27.1772 C   0  0  0  0  0  0  0  0  0  0  0  0
  -13.5315  -24.3795   27.1633 C   0  0  0  0  0  0  0  0  0  0  0  0
  -13.1313  -23.4608   26.2101 C   0  0  0  0  0  0  0  0  0  0  0  0
  -14.0798  -23.0506   25.2992 C   0  0  0  0  0  0  0  0  0  0  0  0
  -15.3558  -23.5128   25.2706 N   0  0  0  0  0  0  0  0  0  0  0  0
  -15.7305  -24.4069   26.2119 C   0  0  0  0  0  0  0  0  0  0  0  0
  -17.0755  -24.7431   26.1841 N   0  0  0  0  0  0  0  0  0  0  0  0
  -14.6089  -28.5539   27.7790 H   0  0  0  0  0  0  0  0  0  0  0  0
  -15.8997  -28.6019   26.4493 H   0  0  0  0  0  0  0  0  0  0  0  0
  -14.5934  -27.4886   26.4332 H   0  0  0  0  0  0  0  0  0  0  0  0
  -17.7521  -27.8555   28.4658 H   0  0  0  0  0  0  0  0  0  0  0  0
  -16.6507  -29.1248   28.1508 H   0  0  0  0  0  0  0  0  0  0  0  0
  -16.9798  -28.8930   30.5419 H   0  0  0  0  0  0  0  0  0  0  0  0
  -16.6979  -27.1548   30.5257 H   0  0  0  0  0  0  0  0  0  0  0  0
  -14.3988  -28.8240   29.7940 H   0  0  0  0  0  0  0  0  0  0  0  0
  -12.6593  -29.2425   30.8755 H   0  0  0  0  0  0  0  0  0  0  0  0
  -12.3538  -28.4735   32.4170 H   0  0  0  0  0  0  0  0  0  0  0  0
  -12.1247  -28.0046   28.7528 H   0  0  0  0  0  0  0  0  0  0  0  0
  -10.2874  -24.3173   29.0083 H   0  0  0  0  0  0  0  0  0  0  0  0
  -10.6935  -24.2809   31.4794 H   0  0  0  0  0  0  0  0  0  0  0  0
  -12.8352  -24.6863   27.9271 H   0  0  0  0  0  0  0  0  0  0  0  0
  -12.1344  -23.0350   26.2045 H   0  0  0  0  0  0  0  0  0  0  0  0
  -13.8401  -22.2935   24.5564 H   0  0  0  0  0  0  0  0  0  0  0  0
  -17.5387  -24.3452   25.3779 H   0  0  0  0  0  0  0  0  0  0  0  0
  -17.2574  -25.7201   26.3792 H   0  0  0  0  0  0  0  0  0  0  0  0
  1  2  1  0
  2  3  1  0
  3  4  1  0
  4  5  1  0
  5  6  1  0
  6  7  2  0
  6  8  1  0
  8  9  1  0
  9 10  2  0
 10 11  1  0
 11 12  2  0
 12 13  1  0
 13 14  2  0
  2 15  1  0
 15 16  2  0
 15 17  1  0
 17 18  2  0
 18 19  1  0
 19 20  2  0
 20 21  1  0
 21 22  2  0
 22 23  1  0
 14  9  1  0
 22 17  1  0
  1 24  1  0
  1 25  1  0
  1 26  1  0
  3 27  1  0
  3 28  1  0
  4 29  1  0
  4 30  1  0
  5 31  1  0
  8 32  1  0
  8 33  1  0
 10 34  1  0
 12 35  1  0
 13 36  1  0
 18 37  1  0
 19 38  1  0
 20 39  1  0
 23 40  1  0
 23 41  1  0
M  END
>  <Energy>  (1338) 
147.12098901960005

>  <compound_id>  (1338) 
69268

>  <target_id>  (1338) 
1

>  <reference_id>  (1338) 
54

>  <inspiration_ids>  (1338) 
[82, 54]

>  <energy_score>  (1338) 
32.097565605127954

>  <distance_score>  (1338) 
4.1321217377077994

>  <path>  (1338) 
/opt/xchem-fragalysis-2/maxwin/BulkDock/SCRATCH/511022/C69268-P54/C69268-P54.minimised.mol

>  <scratch_subdir>  (1338) 
/opt/xchem-fragalysis-2/maxwin/BulkDock/SCRATCH/511022/C69268-P54

>  <fragmenstein_runtime>  (1338) 
9.198286056518555

>  <fragmenstein_outcome>  (1338) 
too moved

>  <fragmenstein_mode>  (1338) 
expansion

>  <fragmenstein_error>  (1338) 


$$$$
C69269-P82
     RDKit          3D

 37 38  0  0  0  0  0  0  0  0999 V2000
  -10.4836  -24.8312   27.4599 C   0  0  0  0  0  0  0  0  0  0  0  0
  -11.7878  -24.5730   28.1224 N   0  0  0  0  0  0  0  0  0  0  0  0
  -11.9179  -23.6267   27.0277 C   0  0  0  0  0  0  0  0  0  0  0  0
  -12.0157  -22.2925   27.8125 C   0  0  0  0  0  0  0  0  0  0  0  0
  -11.5224  -22.1825   29.1941 N   0  0  0  0  0  0  0  0  0  0  0  0
  -12.2380  -22.1633   30.4695 C   0  0  0  0  0  0  0  0  0  0  0  0
  -13.4155  -22.1523   30.7060 O   0  0  0  0  0  0  0  0  0  0  0  0
  -11.3520  -22.2515   31.7343 C   0  0  0  0  0  0  0  0  0  0  0  0
  -10.5211  -23.4662   31.8600 N   0  0  0  0  0  0  0  0  0  0  0  0
  -10.0411  -24.2696   30.8524 C   0  0  0  0  0  0  0  0  0  0  0  0
   -9.0774  -25.0457   31.2451 N   0  0  0  0  0  0  0  0  0  0  0  0
   -9.0361  -24.7821   32.5624 C   0  0  0  0  0  0  0  0  0  0  0  0
   -9.8089  -23.7652   32.9493 N   0  0  0  0  0  0  0  0  0  0  0  0
  -12.4371  -25.7635   28.3719 C   0  0  0  0  0  0  0  0  0  0  0  0
  -13.2164  -26.3811   27.7078 O   0  0  0  0  0  0  0  0  0  0  0  0
  -12.0208  -26.0800   29.7522 C   0  0  0  0  0  0  0  0  0  0  0  0
  -11.0487  -26.9748   30.0665 C   0  0  0  0  0  0  0  0  0  0  0  0
  -10.6003  -27.1749   31.3236 N   0  0  0  0  0  0  0  0  0  0  0  0
  -11.1273  -26.3818   32.3221 C   0  0  0  0  0  0  0  0  0  0  0  0
  -12.1284  -25.4352   32.1097 C   0  0  0  0  0  0  0  0  0  0  0  0
  -12.8947  -24.5516   33.3833 Cl  0  0  0  0  0  0  0  0  0  0  0  0
  -12.5166  -25.2513   30.7814 C   0  0  0  0  0  0  0  0  0  0  0  0
   -9.8239  -23.9564   27.4436 H   0  0  0  0  0  0  0  0  0  0  0  0
  -10.6135  -25.3695   26.5087 H   0  0  0  0  0  0  0  0  0  0  0  0
   -9.9322  -25.5562   28.0718 H   0  0  0  0  0  0  0  0  0  0  0  0
  -12.9071  -23.8202   26.5829 H   0  0  0  0  0  0  0  0  0  0  0  0
  -11.2963  -23.5452   26.1215 H   0  0  0  0  0  0  0  0  0  0  0  0
  -13.0607  -22.1980   27.9449 H   0  0  0  0  0  0  0  0  0  0  0  0
  -11.6031  -21.5053   27.2052 H   0  0  0  0  0  0  0  0  0  0  0  0
  -10.5482  -22.1041   29.3664 H   0  0  0  0  0  0  0  0  0  0  0  0
  -10.7263  -21.3565   31.8052 H   0  0  0  0  0  0  0  0  0  0  0  0
  -11.9899  -22.2062   32.6213 H   0  0  0  0  0  0  0  0  0  0  0  0
  -10.3763  -24.1882   29.8488 H   0  0  0  0  0  0  0  0  0  0  0  0
   -8.4687  -25.3999   33.2396 H   0  0  0  0  0  0  0  0  0  0  0  0
  -10.5503  -27.4910   29.2871 H   0  0  0  0  0  0  0  0  0  0  0  0
  -10.7301  -26.5653   33.3125 H   0  0  0  0  0  0  0  0  0  0  0  0
  -13.2721  -24.5112   30.5496 H   0  0  0  0  0  0  0  0  0  0  0  0
  1  2  1  0
  2  3  1  0
  3  4  1  0
  4  5  1  0
  5  6  1  0
  6  7  2  0
  6  8  1  0
  8  9  1  0
  9 10  1  0
 10 11  2  0
 11 12  1  0
 12 13  2  0
  2 14  1  0
 14 15  2  0
 14 16  1  0
 16 17  2  0
 17 18  1  0
 18 19  2  0
 19 20  1  0
 20 21  1  0
 20 22  2  0
 13  9  1  0
 22 16  1  0
  1 23  1  0
  1 24  1  0
  1 25  1  0
  3 26  1  0
  3 27  1  0
  4 28  1  0
  4 29  1  0
  5 30  1  0
  8 31  1  0
  8 32  1  0
 10 33  1  0
 12 34  1  0
 17 35  1  0
 19 36  1  0
 22 37  1  0
M  END
>  <Energy>  (1339) 
223.59101962402571

>  <compound_id>  (1339) 
69269

>  <target_id>  (1339) 
1

>  <reference_id>  (1339) 
82

>  <inspiration_ids>  (1339) 
[82, 54]

>  <energy_score>  (1339) 
149.21793908669864

>  <distance_score>  (1339) 
2.001829675207227

>  <path>  (1339) 
/opt/xchem-fragalysis-2/maxwin/BulkDock/SCRATCH/511022/C69269-P82/C69269-P82.minimised.mol

>  <scratch_subdir>  (1339) 
/opt/xchem-fragalysis-2/maxwin/BulkDock/SCRATCH/511022/C69269-P82

>  <fragmenstein_runtime>  (1339) 
7.196312189102173

>  <fragmenstein_outcome>  (1339) 
too moved

>  <fragmenstein_mode>  (1339) 
expansion

>  <fragmenstein_error>  (1339) 


$$$$
C69269-P54
     RDKit          3D

 37 38  0  0  0  0  0  0  0  0999 V2000
  -10.0039  -23.7240   28.2742 C   0  0  0  0  0  0  0  0  0  0  0  0
  -11.2762  -23.6427   29.0739 N   0  0  0  0  0  0  0  0  0  0  0  0
  -11.0409  -22.1494   28.8855 C   0  0  0  0  0  0  0  0  0  0  0  0
  -11.9945  -21.3917   29.8404 C   0  0  0  0  0  0  0  0  0  0  0  0
  -11.6376  -21.5561   31.2234 N   0  0  0  0  0  0  0  0  0  0  0  0
  -11.1155  -20.6206   32.1787 C   0  0  0  0  0  0  0  0  0  0  0  0
  -10.9172  -19.4435   32.0911 O   0  0  0  0  0  0  0  0  0  0  0  0
  -10.6692  -21.3214   33.4596 C   0  0  0  0  0  0  0  0  0  0  0  0
   -9.7485  -22.4278   33.2547 N   0  0  0  0  0  0  0  0  0  0  0  0
   -9.1888  -22.8667   32.0960 C   0  0  0  0  0  0  0  0  0  0  0  0
   -8.7159  -24.0735   32.2553 N   0  0  0  0  0  0  0  0  0  0  0  0
   -8.8119  -24.2539   33.5941 C   0  0  0  0  0  0  0  0  0  0  0  0
   -9.4502  -23.2854   34.2578 N   0  0  0  0  0  0  0  0  0  0  0  0
  -12.2553  -24.5014   28.5191 C   0  0  0  0  0  0  0  0  0  0  0  0
  -13.0967  -24.2925   27.6886 O   0  0  0  0  0  0  0  0  0  0  0  0
  -12.2598  -25.8547   29.1351 C   0  0  0  0  0  0  0  0  0  0  0  0
  -12.7245  -26.9232   28.3772 C   0  0  0  0  0  0  0  0  0  0  0  0
  -12.8594  -28.1852   28.8517 N   0  0  0  0  0  0  0  0  0  0  0  0
  -12.5796  -28.3695   30.1612 C   0  0  0  0  0  0  0  0  0  0  0  0
  -12.1337  -27.3599   30.9984 C   0  0  0  0  0  0  0  0  0  0  0  0
  -11.9272  -27.6851   32.6679 Cl  0  0  0  0  0  0  0  0  0  0  0  0
  -11.9145  -26.0908   30.4675 C   0  0  0  0  0  0  0  0  0  0  0  0
   -9.1114  -23.4086   28.8334 H   0  0  0  0  0  0  0  0  0  0  0  0
  -10.0713  -23.3254   27.2500 H   0  0  0  0  0  0  0  0  0  0  0  0
   -9.8222  -24.7971   28.1104 H   0  0  0  0  0  0  0  0  0  0  0  0
  -10.0455  -21.7684   29.1402 H   0  0  0  0  0  0  0  0  0  0  0  0
  -11.3463  -21.8490   27.8708 H   0  0  0  0  0  0  0  0  0  0  0  0
  -13.0144  -21.7598   29.7442 H   0  0  0  0  0  0  0  0  0  0  0  0
  -11.9495  -20.3234   29.6130 H   0  0  0  0  0  0  0  0  0  0  0  0
  -11.7469  -22.4616   31.6718 H   0  0  0  0  0  0  0  0  0  0  0  0
  -11.5327  -21.6759   34.0159 H   0  0  0  0  0  0  0  0  0  0  0  0
  -10.1474  -20.5983   34.0809 H   0  0  0  0  0  0  0  0  0  0  0  0
   -9.1912  -22.3150   31.1738 H   0  0  0  0  0  0  0  0  0  0  0  0
   -8.4263  -25.1326   34.0911 H   0  0  0  0  0  0  0  0  0  0  0  0
  -13.0190  -26.7922   27.3378 H   0  0  0  0  0  0  0  0  0  0  0  0
  -12.7425  -29.3799   30.5291 H   0  0  0  0  0  0  0  0  0  0  0  0
  -11.5285  -25.2885   31.0878 H   0  0  0  0  0  0  0  0  0  0  0  0
  1  2  1  0
  2  3  1  0
  3  4  1  0
  4  5  1  0
  5  6  1  0
  6  7  2  0
  6  8  1  0
  8  9  1  0
  9 10  1  0
 10 11  2  0
 11 12  1  0
 12 13  2  0
  2 14  1  0
 14 15  2  0
 14 16  1  0
 16 17  2  0
 17 18  1  0
 18 19  2  0
 19 20  1  0
 20 21  1  0
 20 22  2  0
 13  9  1  0
 22 16  1  0
  1 23  1  0
  1 24  1  0
  1 25  1  0
  3 26  1  0
  3 27  1  0
  4 28  1  0
  4 29  1  0
  5 30  1  0
  8 31  1  0
  8 32  1  0
 10 33  1  0
 12 34  1  0
 17 35  1  0
 19 36  1  0
 22 37  1  0
M  END
>  <Energy>  (1340) 
112.75707394645558

>  <compound_id>  (1340) 
69269

>  <target_id>  (1340) 
1

>  <reference_id>  (1340) 
54

>  <inspiration_ids>  (1340) 
[82, 54]

>  <energy_score>  (1340) 
38.383993409127925

>  <distance_score>  (1340) 
2.643193004042693

>  <path>  (1340) 
/opt/xchem-fragalysis-2/maxwin/BulkDock/SCRATCH/511022/C69269-P54/C69269-P54.minimised.mol

>  <scratch_subdir>  (1340) 
/opt/xchem-fragalysis-2/maxwin/BulkDock/SCRATCH/511022/C69269-P54

>  <fragmenstein_runtime>  (1340) 
8.84687089920044

>  <fragmenstein_outcome>  (1340) 
too moved

>  <fragmenstein_mode>  (1340) 
expansion

>  <fragmenstein_error>  (1340) 


$$$$
C69271-P82
     RDKit          3D

 42 43  0  0  0  0  0  0  0  0999 V2000
  -12.1868  -23.5841   31.2431 C   0  0  0  0  0  0  0  0  0  0  0  0
  -11.5101  -23.3157   29.9856 N   0  0  0  0  0  0  0  0  0  0  0  0
  -11.7068  -24.2408   28.9674 C   0  0  0  0  0  0  0  0  0  0  0  0
  -11.5799  -25.6122   29.1473 C   0  0  0  0  0  0  0  0  0  0  0  0
  -11.8552  -26.4747   28.0825 C   0  0  0  0  0  0  0  0  0  0  0  0
  -12.2317  -25.9433   26.8587 C   0  0  0  0  0  0  0  0  0  0  0  0
  -12.5330  -26.7636   25.6606 C   0  0  0  0  0  0  0  0  0  0  0  0
  -11.6401  -26.8775   24.8640 O   0  0  0  0  0  0  0  0  0  0  0  0
  -13.8893  -27.2120   25.6067 N   0  0  0  0  0  0  0  0  0  0  0  0
  -14.6545  -27.8613   24.5068 C   0  0  0  0  0  0  0  0  0  0  0  0
  -14.0080  -28.6219   26.2204 C   0  0  0  0  0  0  0  0  0  0  0  0
  -15.3469  -29.0244   26.9065 C   0  0  0  0  0  0  0  0  0  0  0  0
  -15.1741  -30.0452   27.9178 N   0  0  0  0  0  0  0  0  0  0  0  0
  -14.2919  -30.1090   29.0533 C   0  0  0  0  0  0  0  0  0  0  0  0
  -13.4189  -29.3678   29.4071 O   0  0  0  0  0  0  0  0  0  0  0  0
  -14.6033  -31.3273   29.9111 C   0  0  0  0  0  0  0  0  0  0  0  0
  -13.3706  -31.8457   30.4618 N   0  0  0  0  0  0  0  0  0  0  0  0
  -12.4775  -32.4537   29.6589 N   0  0  0  0  0  0  0  0  0  0  0  0
  -11.5460  -32.8305   30.5365 C   0  0  0  0  0  0  0  0  0  0  0  0
  -11.9324  -32.4603   31.8292 C   0  0  0  0  0  0  0  0  0  0  0  0
  -13.1245  -31.8580   31.7897 N   0  0  0  0  0  0  0  0  0  0  0  0
  -12.2466  -24.5609   26.7376 C   0  0  0  0  0  0  0  0  0  0  0  0
  -11.9912  -23.7079   27.7626 N   0  0  0  0  0  0  0  0  0  0  0  0
  -11.7764  -24.4658   31.7452 H   0  0  0  0  0  0  0  0  0  0  0  0
  -13.2637  -23.7089   31.1089 H   0  0  0  0  0  0  0  0  0  0  0  0
  -12.0350  -22.7321   31.9139 H   0  0  0  0  0  0  0  0  0  0  0  0
  -11.7971  -22.4352   29.5613 H   0  0  0  0  0  0  0  0  0  0  0  0
  -11.2914  -26.0215   30.1093 H   0  0  0  0  0  0  0  0  0  0  0  0
  -11.7780  -27.5431   28.2370 H   0  0  0  0  0  0  0  0  0  0  0  0
  -14.1155  -28.6336   23.9393 H   0  0  0  0  0  0  0  0  0  0  0  0
  -14.7381  -27.0500   23.7689 H   0  0  0  0  0  0  0  0  0  0  0  0
  -15.7052  -28.0756   24.7233 H   0  0  0  0  0  0  0  0  0  0  0  0
  -13.2828  -28.5885   27.0397 H   0  0  0  0  0  0  0  0  0  0  0  0
  -13.5636  -29.4372   25.6212 H   0  0  0  0  0  0  0  0  0  0  0  0
  -16.0720  -29.4267   26.1938 H   0  0  0  0  0  0  0  0  0  0  0  0
  -15.7907  -28.1538   27.3980 H   0  0  0  0  0  0  0  0  0  0  0  0
  -15.7359  -30.8906   27.8873 H   0  0  0  0  0  0  0  0  0  0  0  0
  -15.2639  -31.0300   30.7311 H   0  0  0  0  0  0  0  0  0  0  0  0
  -15.0674  -32.1386   29.3430 H   0  0  0  0  0  0  0  0  0  0  0  0
  -10.6568  -33.3447   30.1977 H   0  0  0  0  0  0  0  0  0  0  0  0
  -11.4186  -32.6148   32.7666 H   0  0  0  0  0  0  0  0  0  0  0  0
  -12.4770  -24.0749   25.7929 H   0  0  0  0  0  0  0  0  0  0  0  0
  1  2  1  0
  2  3  1  0
  3  4  2  0
  4  5  1  0
  5  6  2  0
  6  7  1  0
  7  8  2  0
  7  9  1  0
  9 10  1  0
  9 11  1  0
 11 12  1  0
 12 13  1  0
 13 14  1  0
 14 15  2  0
 14 16  1  0
 16 17  1  0
 17 18  1  0
 18 19  2  0
 19 20  1  0
 20 21  2  0
  6 22  1  0
 22 23  2  0
 23  3  1  0
 21 17  1  0
  1 24  1  0
  1 25  1  0
  1 26  1  0
  2 27  1  0
  4 28  1  0
  5 29  1  0
 10 30  1  0
 10 31  1  0
 10 32  1  0
 11 33  1  0
 11 34  1  0
 12 35  1  0
 12 36  1  0
 13 37  1  0
 16 38  1  0
 16 39  1  0
 19 40  1  0
 20 41  1  0
 22 42  1  0
M  END
>  <Energy>  (1341) 
86.119578132613199

>  <compound_id>  (1341) 
69271

>  <target_id>  (1341) 
1

>  <reference_id>  (1341) 
82

>  <inspiration_ids>  (1341) 
[82, 54]

>  <energy_score>  (1341) 
39.435116389469485

>  <distance_score>  (1341) 
4.971586824495536

>  <path>  (1341) 
/opt/xchem-fragalysis-2/maxwin/BulkDock/SCRATCH/511022/C69271-P82/C69271-P82.minimised.mol

>  <scratch_subdir>  (1341) 
/opt/xchem-fragalysis-2/maxwin/BulkDock/SCRATCH/511022/C69271-P82

>  <fragmenstein_runtime>  (1341) 
15.859982967376709

>  <fragmenstein_outcome>  (1341) 
too moved

>  <fragmenstein_mode>  (1341) 
expansion

>  <fragmenstein_error>  (1341) 


$$$$
C69271-P54
     RDKit          3D

 42 43  0  0  0  0  0  0  0  0999 V2000
  -11.2362  -21.5467   28.9259 C   0  0  0  0  0  0  0  0  0  0  0  0
  -12.0257  -22.6340   29.4536 N   0  0  0  0  0  0  0  0  0  0  0  0
  -12.6064  -23.5333   28.5815 C   0  0  0  0  0  0  0  0  0  0  0  0
  -11.9653  -24.0967   27.4861 C   0  0  0  0  0  0  0  0  0  0  0  0
  -12.6384  -25.0434   26.7063 C   0  0  0  0  0  0  0  0  0  0  0  0
  -13.9753  -25.3203   26.9690 C   0  0  0  0  0  0  0  0  0  0  0  0
  -14.7738  -26.2122   26.1000 C   0  0  0  0  0  0  0  0  0  0  0  0
  -15.7061  -25.7055   25.5366 O   0  0  0  0  0  0  0  0  0  0  0  0
  -14.2351  -27.5290   26.0021 N   0  0  0  0  0  0  0  0  0  0  0  0
  -14.5851  -28.6586   25.0922 C   0  0  0  0  0  0  0  0  0  0  0  0
  -14.9082  -28.4705   27.0543 C   0  0  0  0  0  0  0  0  0  0  0  0
  -14.7812  -28.0006   28.5260 C   0  0  0  0  0  0  0  0  0  0  0  0
  -13.4365  -27.6257   28.8712 N   0  0  0  0  0  0  0  0  0  0  0  0
  -12.9144  -26.9122   30.0206 C   0  0  0  0  0  0  0  0  0  0  0  0
  -13.4609  -26.5239   31.0122 O   0  0  0  0  0  0  0  0  0  0  0  0
  -11.4196  -26.7455   29.8318 C   0  0  0  0  0  0  0  0  0  0  0  0
  -10.8362  -25.5516   30.4298 N   0  0  0  0  0  0  0  0  0  0  0  0
   -9.9926  -24.7823   29.6808 N   0  0  0  0  0  0  0  0  0  0  0  0
   -9.4499  -23.9908   30.6097 C   0  0  0  0  0  0  0  0  0  0  0  0
   -9.8423  -24.4133   31.8749 C   0  0  0  0  0  0  0  0  0  0  0  0
  -10.6473  -25.4754   31.7644 N   0  0  0  0  0  0  0  0  0  0  0  0
  -14.5519  -24.6894   28.0443 C   0  0  0  0  0  0  0  0  0  0  0  0
  -13.8692  -23.8770   28.8899 N   0  0  0  0  0  0  0  0  0  0  0  0
  -10.9630  -20.8694   29.7406 H   0  0  0  0  0  0  0  0  0  0  0  0
  -11.7903  -20.9692   28.1836 H   0  0  0  0  0  0  0  0  0  0  0  0
  -10.3085  -21.9043   28.4690 H   0  0  0  0  0  0  0  0  0  0  0  0
  -12.7058  -22.3773   30.1670 H   0  0  0  0  0  0  0  0  0  0  0  0
  -10.9338  -23.8463   27.2635 H   0  0  0  0  0  0  0  0  0  0  0  0
  -12.1308  -25.5369   25.8871 H   0  0  0  0  0  0  0  0  0  0  0  0
  -15.6604  -28.8421   24.9521 H   0  0  0  0  0  0  0  0  0  0  0  0
  -13.9668  -29.5573   25.2224 H   0  0  0  0  0  0  0  0  0  0  0  0
  -14.2831  -28.2820   24.1039 H   0  0  0  0  0  0  0  0  0  0  0  0
  -14.4329  -29.4655   27.0821 H   0  0  0  0  0  0  0  0  0  0  0  0
  -15.9946  -28.5432   26.8825 H   0  0  0  0  0  0  0  0  0  0  0  0
  -15.4472  -27.1618   28.7413 H   0  0  0  0  0  0  0  0  0  0  0  0
  -15.0819  -28.8080   29.2031 H   0  0  0  0  0  0  0  0  0  0  0  0
  -12.7020  -27.7200   28.1774 H   0  0  0  0  0  0  0  0  0  0  0  0
  -10.9488  -27.6243   30.2783 H   0  0  0  0  0  0  0  0  0  0  0  0
  -11.1480  -26.7244   28.7715 H   0  0  0  0  0  0  0  0  0  0  0  0
   -8.7895  -23.1879   30.3222 H   0  0  0  0  0  0  0  0  0  0  0  0
   -9.5692  -24.0300   32.8472 H   0  0  0  0  0  0  0  0  0  0  0  0
  -15.5985  -24.8413   28.2917 H   0  0  0  0  0  0  0  0  0  0  0  0
  1  2  1  0
  2  3  1  0
  3  4  2  0
  4  5  1  0
  5  6  2  0
  6  7  1  0
  7  8  2  0
  7  9  1  0
  9 10  1  0
  9 11  1  0
 11 12  1  0
 12 13  1  0
 13 14  1  0
 14 15  2  0
 14 16  1  0
 16 17  1  0
 17 18  1  0
 18 19  2  0
 19 20  1  0
 20 21  2  0
  6 22  1  0
 22 23  2  0
 23  3  1  0
 21 17  1  0
  1 24  1  0
  1 25  1  0
  1 26  1  0
  2 27  1  0
  4 28  1  0
  5 29  1  0
 10 30  1  0
 10 31  1  0
 10 32  1  0
 11 33  1  0
 11 34  1  0
 12 35  1  0
 12 36  1  0
 13 37  1  0
 16 38  1  0
 16 39  1  0
 19 40  1  0
 20 41  1  0
 22 42  1  0
M  END
>  <Energy>  (1342) 
91.870635321365327

>  <compound_id>  (1342) 
69271

>  <target_id>  (1342) 
1

>  <reference_id>  (1342) 
54

>  <inspiration_ids>  (1342) 
[82, 54]

>  <energy_score>  (1342) 
45.18617357822028

>  <distance_score>  (1342) 
3.2772330142381856

>  <path>  (1342) 
/opt/xchem-fragalysis-2/maxwin/BulkDock/SCRATCH/511022/C69271-P54/C69271-P54.minimised.mol

>  <scratch_subdir>  (1342) 
/opt/xchem-fragalysis-2/maxwin/BulkDock/SCRATCH/511022/C69271-P54

>  <fragmenstein_runtime>  (1342) 
9.182911396026611

>  <fragmenstein_outcome>  (1342) 
too moved

>  <fragmenstein_mode>  (1342) 
expansion

>  <fragmenstein_error>  (1342) 


$$$$
C69272-P82
     RDKit          3D

 44 45  0  0  0  0  0  0  0  0999 V2000
  -14.0138  -27.9839   25.6520 C   0  0  0  0  0  0  0  0  0  0  0  0
  -13.0070  -26.8545   25.7644 C   0  0  0  0  0  0  0  0  0  0  0  0
  -13.1014  -26.3169   27.0799 O   0  0  0  0  0  0  0  0  0  0  0  0
  -12.3635  -25.2028   27.3296 C   0  0  0  0  0  0  0  0  0  0  0  0
  -11.3470  -24.6903   26.5996 C   0  0  0  0  0  0  0  0  0  0  0  0
  -10.6862  -23.5981   26.9966 N   0  0  0  0  0  0  0  0  0  0  0  0
  -11.1370  -22.8729   28.0593 C   0  0  0  0  0  0  0  0  0  0  0  0
  -12.1432  -23.2582   28.8903 C   0  0  0  0  0  0  0  0  0  0  0  0
  -12.5291  -22.2920   30.0540 C   0  0  0  0  0  0  0  0  0  0  0  0
  -11.7741  -21.3483   30.1046 O   0  0  0  0  0  0  0  0  0  0  0  0
  -13.7370  -22.5760   30.8191 N   0  0  0  0  0  0  0  0  0  0  0  0
  -14.4745  -21.7526   31.8130 C   0  0  0  0  0  0  0  0  0  0  0  0
  -13.4000  -23.3682   32.0640 C   0  0  0  0  0  0  0  0  0  0  0  0
  -11.9875  -23.1218   32.5688 C   0  0  0  0  0  0  0  0  0  0  0  0
  -11.0381  -23.8748   31.8048 N   0  0  0  0  0  0  0  0  0  0  0  0
  -11.2129  -25.0250   30.9460 C   0  0  0  0  0  0  0  0  0  0  0  0
  -12.2013  -25.5890   30.5912 O   0  0  0  0  0  0  0  0  0  0  0  0
   -9.9394  -25.6501   30.5310 C   0  0  0  0  0  0  0  0  0  0  0  0
   -9.5923  -26.1337   31.8356 N   0  0  0  0  0  0  0  0  0  0  0  0
  -10.6659  -26.5427   32.6213 N   0  0  0  0  0  0  0  0  0  0  0  0
  -10.4474  -25.9034   33.7567 C   0  0  0  0  0  0  0  0  0  0  0  0
   -9.1416  -25.4693   33.7220 C   0  0  0  0  0  0  0  0  0  0  0  0
   -8.6441  -25.4268   32.4971 N   0  0  0  0  0  0  0  0  0  0  0  0
  -12.6769  -24.4911   28.4823 C   0  0  0  0  0  0  0  0  0  0  0  0
  -15.0199  -27.6312   25.9026 H   0  0  0  0  0  0  0  0  0  0  0  0
  -14.0273  -28.3917   24.6385 H   0  0  0  0  0  0  0  0  0  0  0  0
  -13.7723  -28.7868   26.3562 H   0  0  0  0  0  0  0  0  0  0  0  0
  -13.2618  -26.0854   25.0296 H   0  0  0  0  0  0  0  0  0  0  0  0
  -11.9997  -27.2429   25.5764 H   0  0  0  0  0  0  0  0  0  0  0  0
  -11.0080  -25.1198   25.6700 H   0  0  0  0  0  0  0  0  0  0  0  0
  -10.6260  -21.9306   28.2099 H   0  0  0  0  0  0  0  0  0  0  0  0
  -14.9516  -20.9610   31.2269 H   0  0  0  0  0  0  0  0  0  0  0  0
  -15.3708  -22.2549   32.2155 H   0  0  0  0  0  0  0  0  0  0  0  0
  -13.8629  -21.2453   32.5700 H   0  0  0  0  0  0  0  0  0  0  0  0
  -13.4972  -24.3898   31.7405 H   0  0  0  0  0  0  0  0  0  0  0  0
  -14.0889  -23.4095   32.9316 H   0  0  0  0  0  0  0  0  0  0  0  0
  -11.9127  -23.4875   33.5972 H   0  0  0  0  0  0  0  0  0  0  0  0
  -11.6900  -22.0697   32.5827 H   0  0  0  0  0  0  0  0  0  0  0  0
  -10.0464  -23.7210   31.9559 H   0  0  0  0  0  0  0  0  0  0  0  0
   -9.2147  -24.9529   30.1326 H   0  0  0  0  0  0  0  0  0  0  0  0
  -10.0869  -26.5001   29.8627 H   0  0  0  0  0  0  0  0  0  0  0  0
  -11.1520  -25.9078   34.5676 H   0  0  0  0  0  0  0  0  0  0  0  0
   -8.5482  -25.2664   34.5873 H   0  0  0  0  0  0  0  0  0  0  0  0
  -13.4106  -24.9750   29.1061 H   0  0  0  0  0  0  0  0  0  0  0  0
  1  2  1  0
  2  3  1  0
  3  4  1  0
  4  5  2  0
  5  6  1  0
  6  7  2  0
  7  8  1  0
  8  9  1  0
  9 10  2  0
  9 11  1  0
 11 12  1  0
 11 13  1  0
 13 14  1  0
 14 15  1  0
 15 16  1  0
 16 17  2  0
 16 18  1  0
 18 19  1  0
 19 20  1  0
 20 21  2  0
 21 22  1  0
 22 23  2  0
  8 24  2  0
 24  4  1  0
 23 19  1  0
  1 25  1  0
  1 26  1  0
  1 27  1  0
  2 28  1  0
  2 29  1  0
  5 30  1  0
  7 31  1  0
 12 32  1  0
 12 33  1  0
 12 34  1  0
 13 35  1  0
 13 36  1  0
 14 37  1  0
 14 38  1  0
 15 39  1  0
 18 40  1  0
 18 41  1  0
 21 42  1  0
 22 43  1  0
 24 44  1  0
M  END
>  <Energy>  (1343) 
217.71897792179945

>  <compound_id>  (1343) 
69272

>  <target_id>  (1343) 
1

>  <reference_id>  (1343) 
82

>  <inspiration_ids>  (1343) 
[82, 54]

>  <energy_score>  (1343) 
118.96236838280822

>  <distance_score>  (1343) 
2.8885928401267065

>  <path>  (1343) 
/opt/xchem-fragalysis-2/maxwin/BulkDock/SCRATCH/511022/C69272-P82/C69272-P82.minimised.mol

>  <scratch_subdir>  (1343) 
/opt/xchem-fragalysis-2/maxwin/BulkDock/SCRATCH/511022/C69272-P82

>  <fragmenstein_runtime>  (1343) 
8.825917482376099

>  <fragmenstein_outcome>  (1343) 
too moved

>  <fragmenstein_mode>  (1343) 
expansion

>  <fragmenstein_error>  (1343) 


$$$$
C69272-P54
     RDKit          3D

 44 45  0  0  0  0  0  0  0  0999 V2000
  -14.8999  -25.4816   26.9451 C   0  0  0  0  0  0  0  0  0  0  0  0
  -13.5435  -24.8014   26.9437 C   0  0  0  0  0  0  0  0  0  0  0  0
  -13.2644  -24.3615   28.2769 O   0  0  0  0  0  0  0  0  0  0  0  0
  -12.2162  -23.4915   28.3850 C   0  0  0  0  0  0  0  0  0  0  0  0
  -11.1116  -23.4595   27.5533 C   0  0  0  0  0  0  0  0  0  0  0  0
  -10.1883  -22.4844   27.6002 N   0  0  0  0  0  0  0  0  0  0  0  0
  -10.4098  -21.4906   28.4938 C   0  0  0  0  0  0  0  0  0  0  0  0
  -11.3883  -21.4962   29.4619 C   0  0  0  0  0  0  0  0  0  0  0  0
  -11.5700  -20.3076   30.3438 C   0  0  0  0  0  0  0  0  0  0  0  0
  -11.2717  -19.2633   29.8310 O   0  0  0  0  0  0  0  0  0  0  0  0
  -12.1536  -20.5812   31.6095 N   0  0  0  0  0  0  0  0  0  0  0  0
  -12.6872  -19.6550   32.6652 C   0  0  0  0  0  0  0  0  0  0  0  0
  -11.0501  -20.7916   32.6821 C   0  0  0  0  0  0  0  0  0  0  0  0
   -9.8241  -21.5836   32.2431 C   0  0  0  0  0  0  0  0  0  0  0  0
   -9.8276  -22.9855   32.2780 N   0  0  0  0  0  0  0  0  0  0  0  0
   -9.5190  -23.8903   33.3228 C   0  0  0  0  0  0  0  0  0  0  0  0
   -9.2524  -23.6964   34.4718 O   0  0  0  0  0  0  0  0  0  0  0  0
   -9.4545  -25.2658   32.7545 C   0  0  0  0  0  0  0  0  0  0  0  0
  -10.6333  -25.7446   32.0411 N   0  0  0  0  0  0  0  0  0  0  0  0
  -10.8942  -25.3607   30.7693 N   0  0  0  0  0  0  0  0  0  0  0  0
  -11.8071  -26.2655   30.3973 C   0  0  0  0  0  0  0  0  0  0  0  0
  -12.1163  -27.1162   31.4601 C   0  0  0  0  0  0  0  0  0  0  0  0
  -11.3795  -26.7857   32.5209 N   0  0  0  0  0  0  0  0  0  0  0  0
  -12.2963  -22.5361   29.4010 C   0  0  0  0  0  0  0  0  0  0  0  0
  -15.6799  -24.7851   27.2685 H   0  0  0  0  0  0  0  0  0  0  0  0
  -15.1503  -25.8522   25.9470 H   0  0  0  0  0  0  0  0  0  0  0  0
  -14.9098  -26.3212   27.6479 H   0  0  0  0  0  0  0  0  0  0  0  0
  -13.5670  -23.9527   26.2492 H   0  0  0  0  0  0  0  0  0  0  0  0
  -12.7848  -25.5244   26.6236 H   0  0  0  0  0  0  0  0  0  0  0  0
  -10.9337  -24.2034   26.7864 H   0  0  0  0  0  0  0  0  0  0  0  0
   -9.7713  -20.6256   28.3862 H   0  0  0  0  0  0  0  0  0  0  0  0
  -13.6448  -19.3164   32.2458 H   0  0  0  0  0  0  0  0  0  0  0  0
  -12.9654  -20.1030   33.6294 H   0  0  0  0  0  0  0  0  0  0  0  0
  -12.1195  -18.7189   32.7615 H   0  0  0  0  0  0  0  0  0  0  0  0
  -11.4476  -21.3163   33.5633 H   0  0  0  0  0  0  0  0  0  0  0  0
  -10.5830  -19.8311   32.9580 H   0  0  0  0  0  0  0  0  0  0  0  0
   -9.6029  -21.4381   31.2071 H   0  0  0  0  0  0  0  0  0  0  0  0
   -8.9684  -21.2687   32.8517 H   0  0  0  0  0  0  0  0  0  0  0  0
  -10.0855  -23.5170   31.4428 H   0  0  0  0  0  0  0  0  0  0  0  0
   -9.1821  -25.9848   33.5283 H   0  0  0  0  0  0  0  0  0  0  0  0
   -8.6364  -25.2064   32.0339 H   0  0  0  0  0  0  0  0  0  0  0  0
  -12.1933  -26.2746   29.3905 H   0  0  0  0  0  0  0  0  0  0  0  0
  -12.8061  -27.9478   31.5118 H   0  0  0  0  0  0  0  0  0  0  0  0
  -13.1395  -22.5049   30.0651 H   0  0  0  0  0  0  0  0  0  0  0  0
  1  2  1  0
  2  3  1  0
  3  4  1  0
  4  5  2  0
  5  6  1  0
  6  7  2  0
  7  8  1  0
  8  9  1  0
  9 10  2  0
  9 11  1  0
 11 12  1  0
 11 13  1  0
 13 14  1  0
 14 15  1  0
 15 16  1  0
 16 17  2  0
 16 18  1  0
 18 19  1  0
 19 20  1  0
 20 21  2  0
 21 22  1  0
 22 23  2  0
  8 24  2  0
 24  4  1  0
 23 19  1  0
  1 25  1  0
  1 26  1  0
  1 27  1  0
  2 28  1  0
  2 29  1  0
  5 30  1  0
  7 31  1  0
 12 32  1  0
 12 33  1  0
 12 34  1  0
 13 35  1  0
 13 36  1  0
 14 37  1  0
 14 38  1  0
 15 39  1  0
 18 40  1  0
 18 41  1  0
 21 42  1  0
 22 43  1  0
 24 44  1  0
M  END
>  <Energy>  (1344) 
141.99484529970124

>  <compound_id>  (1344) 
69272

>  <target_id>  (1344) 
1

>  <reference_id>  (1344) 
54

>  <inspiration_ids>  (1344) 
[82, 54]

>  <energy_score>  (1344) 
43.238235760716606

>  <distance_score>  (1344) 
2.8189625184573135

>  <path>  (1344) 
/opt/xchem-fragalysis-2/maxwin/BulkDock/SCRATCH/511022/C69272-P54/C69272-P54.minimised.mol

>  <scratch_subdir>  (1344) 
/opt/xchem-fragalysis-2/maxwin/BulkDock/SCRATCH/511022/C69272-P54

>  <fragmenstein_runtime>  (1344) 
12.333652973175049

>  <fragmenstein_outcome>  (1344) 
too moved

>  <fragmenstein_mode>  (1344) 
expansion

>  <fragmenstein_error>  (1344) 


$$$$
C69276-P82
     RDKit          3D

 41 42  0  0  0  0  0  0  0  0999 V2000
   -9.7286  -24.4140   32.5030 C   0  0  0  0  0  0  0  0  0  0  0  0
  -11.1298  -23.8591   32.7783 C   0  0  0  0  0  0  0  0  0  0  0  0
  -11.2954  -22.4031   32.1832 C   0  0  0  0  0  0  0  0  0  0  0  0
  -12.1527  -24.8133   32.2312 N   0  0  0  0  0  0  0  0  0  0  0  0
  -13.0653  -24.0539   33.2249 C   0  0  0  0  0  0  0  0  0  0  0  0
  -14.4752  -23.6484   32.8964 C   0  0  0  0  0  0  0  0  0  0  0  0
  -14.7595  -22.6799   31.9435 C   0  0  0  0  0  0  0  0  0  0  0  0
  -16.0615  -22.2056   31.8441 C   0  0  0  0  0  0  0  0  0  0  0  0
  -17.0349  -22.6987   32.7014 C   0  0  0  0  0  0  0  0  0  0  0  0
  -16.6666  -23.6497   33.6339 C   0  0  0  0  0  0  0  0  0  0  0  0
  -15.4114  -24.1082   33.7744 N   0  0  0  0  0  0  0  0  0  0  0  0
  -12.1146  -24.8059   30.8081 C   0  0  0  0  0  0  0  0  0  0  0  0
  -12.7188  -24.1426   30.0188 O   0  0  0  0  0  0  0  0  0  0  0  0
  -11.2020  -25.9260   30.2728 C   0  0  0  0  0  0  0  0  0  0  0  0
  -10.4231  -25.5513   29.0194 C   0  0  0  0  0  0  0  0  0  0  0  0
  -11.2818  -25.3531   27.8023 C   0  0  0  0  0  0  0  0  0  0  0  0
  -12.0379  -26.3963   27.3014 C   0  0  0  0  0  0  0  0  0  0  0  0
  -12.8684  -26.0962   26.2534 C   0  0  0  0  0  0  0  0  0  0  0  0
  -12.9675  -24.8717   25.7221 N   0  0  0  0  0  0  0  0  0  0  0  0
  -12.1811  -23.9307   26.2702 C   0  0  0  0  0  0  0  0  0  0  0  0
  -11.3013  -24.1189   27.2625 N   0  0  0  0  0  0  0  0  0  0  0  0
   -8.9766  -23.7570   32.9274 H   0  0  0  0  0  0  0  0  0  0  0  0
   -9.6053  -25.3986   32.9653 H   0  0  0  0  0  0  0  0  0  0  0  0
   -9.5044  -24.5102   31.4467 H   0  0  0  0  0  0  0  0  0  0  0  0
  -11.1065  -23.8746   33.8717 H   0  0  0  0  0  0  0  0  0  0  0  0
  -12.0951  -21.8241   32.6548 H   0  0  0  0  0  0  0  0  0  0  0  0
  -11.5221  -22.4057   31.1146 H   0  0  0  0  0  0  0  0  0  0  0  0
  -10.4271  -21.7699   32.2951 H   0  0  0  0  0  0  0  0  0  0  0  0
  -12.7454  -23.2131   33.8594 H   0  0  0  0  0  0  0  0  0  0  0  0
  -13.1866  -24.8537   33.9668 H   0  0  0  0  0  0  0  0  0  0  0  0
  -14.0002  -22.3394   31.2522 H   0  0  0  0  0  0  0  0  0  0  0  0
  -16.3283  -21.4946   31.0736 H   0  0  0  0  0  0  0  0  0  0  0  0
  -18.0652  -22.3740   32.6233 H   0  0  0  0  0  0  0  0  0  0  0  0
  -17.3956  -24.0797   34.3128 H   0  0  0  0  0  0  0  0  0  0  0  0
  -11.8490  -26.7697   30.0259 H   0  0  0  0  0  0  0  0  0  0  0  0
  -10.5261  -26.3065   31.0411 H   0  0  0  0  0  0  0  0  0  0  0  0
   -9.6870  -26.3278   28.7950 H   0  0  0  0  0  0  0  0  0  0  0  0
   -9.8603  -24.6428   29.2016 H   0  0  0  0  0  0  0  0  0  0  0  0
  -12.0083  -27.3891   27.7259 H   0  0  0  0  0  0  0  0  0  0  0  0
  -13.5069  -26.8503   25.8052 H   0  0  0  0  0  0  0  0  0  0  0  0
  -12.2600  -22.9319   25.8596 H   0  0  0  0  0  0  0  0  0  0  0  0
  1  2  1  0
  2  3  1  0
  2  4  1  0
  4  5  1  0
  5  6  1  0
  6  7  2  0
  7  8  1  0
  8  9  2  0
  9 10  1  0
 10 11  2  0
  4 12  1  0
 12 13  2  0
 12 14  1  0
 14 15  1  0
 15 16  1  0
 16 17  2  0
 17 18  1  0
 18 19  2  0
 19 20  1  0
 20 21  2  0
 11  6  1  0
 21 16  1  0
  1 22  1  0
  1 23  1  0
  1 24  1  0
  2 25  1  0
  3 26  1  0
  3 27  1  0
  3 28  1  0
  5 29  1  0
  5 30  1  0
  7 31  1  0
  8 32  1  0
  9 33  1  0
 10 34  1  0
 14 35  1  0
 14 36  1  0
 15 37  1  0
 15 38  1  0
 17 39  1  0
 18 40  1  0
 20 41  1  0
M  END
>  <Energy>  (1345) 
113.10373911175252

>  <compound_id>  (1345) 
69276

>  <target_id>  (1345) 
1

>  <reference_id>  (1345) 
82

>  <inspiration_ids>  (1345) 
[82, 54]

>  <energy_score>  (1345) 
65.79453333605767

>  <distance_score>  (1345) 
3.7663459184441197

>  <path>  (1345) 
/opt/xchem-fragalysis-2/maxwin/BulkDock/SCRATCH/511022/C69276-P82/C69276-P82.minimised.mol

>  <scratch_subdir>  (1345) 
/opt/xchem-fragalysis-2/maxwin/BulkDock/SCRATCH/511022/C69276-P82

>  <fragmenstein_runtime>  (1345) 
6.1806089878082275

>  <fragmenstein_outcome>  (1345) 
too moved

>  <fragmenstein_mode>  (1345) 
expansion

>  <fragmenstein_error>  (1345) 


$$$$
C69276-P54
     RDKit          3D

 41 42  0  0  0  0  0  0  0  0999 V2000
  -10.5866  -23.0491   27.2873 C   0  0  0  0  0  0  0  0  0  0  0  0
  -10.6801  -23.1199   28.8187 C   0  0  0  0  0  0  0  0  0  0  0  0
  -12.0929  -22.7595   29.2925 C   0  0  0  0  0  0  0  0  0  0  0  0
  -10.1773  -24.5468   29.2610 N   0  0  0  0  0  0  0  0  0  0  0  0
   -9.2557  -23.7247   30.0992 C   0  0  0  0  0  0  0  0  0  0  0  0
   -9.5793  -23.3272   31.5295 C   0  0  0  0  0  0  0  0  0  0  0  0
  -10.1883  -22.1167   31.8517 C   0  0  0  0  0  0  0  0  0  0  0  0
  -10.2874  -21.7290   33.1812 C   0  0  0  0  0  0  0  0  0  0  0  0
   -9.7359  -22.5363   34.1577 C   0  0  0  0  0  0  0  0  0  0  0  0
   -9.1470  -23.7203   33.7654 C   0  0  0  0  0  0  0  0  0  0  0  0
   -9.0776  -24.1379   32.4911 N   0  0  0  0  0  0  0  0  0  0  0  0
  -11.2923  -25.3754   29.6292 C   0  0  0  0  0  0  0  0  0  0  0  0
  -11.8237  -25.5454   30.6982 O   0  0  0  0  0  0  0  0  0  0  0  0
  -11.7371  -26.2037   28.4247 C   0  0  0  0  0  0  0  0  0  0  0  0
  -13.2462  -26.3945   28.3165 C   0  0  0  0  0  0  0  0  0  0  0  0
  -13.9476  -25.4093   27.4136 C   0  0  0  0  0  0  0  0  0  0  0  0
  -15.3225  -25.4367   27.3211 C   0  0  0  0  0  0  0  0  0  0  0  0
  -15.8910  -24.5606   26.4261 C   0  0  0  0  0  0  0  0  0  0  0  0
  -15.1842  -23.7089   25.6600 N   0  0  0  0  0  0  0  0  0  0  0  0
  -13.8638  -23.7198   25.8644 C   0  0  0  0  0  0  0  0  0  0  0  0
  -13.2088  -24.5514   26.6836 N   0  0  0  0  0  0  0  0  0  0  0  0
   -9.5441  -22.8867   27.0138 H   0  0  0  0  0  0  0  0  0  0  0  0
  -10.8851  -23.9624   26.7803 H   0  0  0  0  0  0  0  0  0  0  0  0
  -11.1697  -22.2134   26.8887 H   0  0  0  0  0  0  0  0  0  0  0  0
  -10.0997  -22.2176   29.0780 H   0  0  0  0  0  0  0  0  0  0  0  0
  -12.3148  -21.7219   29.0243 H   0  0  0  0  0  0  0  0  0  0  0  0
  -12.8636  -23.3898   28.8589 H   0  0  0  0  0  0  0  0  0  0  0  0
  -12.1913  -22.8342   30.3724 H   0  0  0  0  0  0  0  0  0  0  0  0
   -8.5605  -23.0503   29.5710 H   0  0  0  0  0  0  0  0  0  0  0  0
   -8.5192  -24.5173   30.2771 H   0  0  0  0  0  0  0  0  0  0  0  0
  -10.5708  -21.4401   31.0993 H   0  0  0  0  0  0  0  0  0  0  0  0
  -10.7820  -20.7997   33.4511 H   0  0  0  0  0  0  0  0  0  0  0  0
   -9.7980  -22.2566   35.2009 H   0  0  0  0  0  0  0  0  0  0  0  0
   -8.7099  -24.4021   34.4815 H   0  0  0  0  0  0  0  0  0  0  0  0
  -11.2738  -25.8790   27.4919 H   0  0  0  0  0  0  0  0  0  0  0  0
  -11.2988  -27.1940   28.6189 H   0  0  0  0  0  0  0  0  0  0  0  0
  -13.4328  -27.3921   27.8976 H   0  0  0  0  0  0  0  0  0  0  0  0
  -13.7194  -26.3668   29.3048 H   0  0  0  0  0  0  0  0  0  0  0  0
  -15.9318  -26.1095   27.9101 H   0  0  0  0  0  0  0  0  0  0  0  0
  -16.9696  -24.5159   26.3002 H   0  0  0  0  0  0  0  0  0  0  0  0
  -13.2736  -22.9937   25.3151 H   0  0  0  0  0  0  0  0  0  0  0  0
  1  2  1  0
  2  3  1  0
  2  4  1  0
  4  5  1  0
  5  6  1  0
  6  7  2  0
  7  8  1  0
  8  9  2  0
  9 10  1  0
 10 11  2  0
  4 12  1  0
 12 13  2  0
 12 14  1  0
 14 15  1  0
 15 16  1  0
 16 17  2  0
 17 18  1  0
 18 19  2  0
 19 20  1  0
 20 21  2  0
 11  6  1  0
 21 16  1  0
  1 22  1  0
  1 23  1  0
  1 24  1  0
  2 25  1  0
  3 26  1  0
  3 27  1  0
  3 28  1  0
  5 29  1  0
  5 30  1  0
  7 31  1  0
  8 32  1  0
  9 33  1  0
 10 34  1  0
 14 35  1  0
 14 36  1  0
 15 37  1  0
 15 38  1  0
 17 39  1  0
 18 40  1  0
 20 41  1  0
M  END
>  <Energy>  (1346) 
108.76078176620852

>  <compound_id>  (1346) 
69276

>  <target_id>  (1346) 
1

>  <reference_id>  (1346) 
54

>  <inspiration_ids>  (1346) 
[82, 54]

>  <energy_score>  (1346) 
61.45157599051137

>  <distance_score>  (1346) 
3.918297832557667

>  <path>  (1346) 
/opt/xchem-fragalysis-2/maxwin/BulkDock/SCRATCH/511022/C69276-P54/C69276-P54.minimised.mol

>  <scratch_subdir>  (1346) 
/opt/xchem-fragalysis-2/maxwin/BulkDock/SCRATCH/511022/C69276-P54

>  <fragmenstein_runtime>  (1346) 
6.2646543979644775

>  <fragmenstein_outcome>  (1346) 
too moved

>  <fragmenstein_mode>  (1346) 
expansion

>  <fragmenstein_error>  (1346) 


$$$$
C69278-P82
     RDKit          3D

 46 47  0  0  0  0  0  0  0  0999 V2000
  -17.6647  -21.6571   31.0141 C   0  0  0  0  0  0  0  0  0  0  0  0
  -16.4951  -22.5820   31.3173 C   0  0  0  0  0  0  0  0  0  0  0  0
  -15.1209  -22.1940   31.8486 N   0  0  0  0  0  0  0  0  0  0  0  0
  -15.9692  -21.4843   32.9019 C   0  0  0  0  0  0  0  0  0  0  0  0
  -14.9469  -20.8360   33.8896 C   0  0  0  0  0  0  0  0  0  0  0  0
  -13.8429  -21.7482   33.9071 N   0  0  0  0  0  0  0  0  0  0  0  0
  -12.4827  -21.5724   33.5518 C   0  0  0  0  0  0  0  0  0  0  0  0
  -11.8829  -20.5949   33.2226 O   0  0  0  0  0  0  0  0  0  0  0  0
  -11.7157  -22.8803   33.4938 C   0  0  0  0  0  0  0  0  0  0  0  0
  -10.6543  -22.9745   32.6393 C   0  0  0  0  0  0  0  0  0  0  0  0
   -9.8796  -24.1441   32.5561 C   0  0  0  0  0  0  0  0  0  0  0  0
  -10.0983  -25.2448   33.2679 N   0  0  0  0  0  0  0  0  0  0  0  0
  -11.1716  -25.1635   34.0408 C   0  0  0  0  0  0  0  0  0  0  0  0
  -11.9967  -24.0519   34.1303 C   0  0  0  0  0  0  0  0  0  0  0  0
  -14.2719  -23.3785   31.9516 C   0  0  0  0  0  0  0  0  0  0  0  0
  -14.1051  -24.1395   32.8710 O   0  0  0  0  0  0  0  0  0  0  0  0
  -13.3517  -23.6384   30.7163 C   0  0  0  0  0  0  0  0  0  0  0  0
  -12.0028  -24.3210   30.6113 C   0  0  0  0  0  0  0  0  0  0  0  0
  -11.6781  -25.2666   29.4495 C   0  0  0  0  0  0  0  0  0  0  0  0
  -12.0181  -24.8393   28.1243 N   0  0  0  0  0  0  0  0  0  0  0  0
  -12.5311  -25.6202   27.1374 C   0  0  0  0  0  0  0  0  0  0  0  0
  -12.7024  -24.9057   26.0538 N   0  0  0  0  0  0  0  0  0  0  0  0
  -12.2195  -23.6810   26.4269 C   0  0  0  0  0  0  0  0  0  0  0  0
  -11.7490  -23.6065   27.6749 N   0  0  0  0  0  0  0  0  0  0  0  0
  -18.2706  -22.0860   30.2087 H   0  0  0  0  0  0  0  0  0  0  0  0
  -17.2871  -20.6790   30.7313 H   0  0  0  0  0  0  0  0  0  0  0  0
  -18.3363  -21.5401   31.8726 H   0  0  0  0  0  0  0  0  0  0  0  0
  -16.2878  -22.9880   30.3426 H   0  0  0  0  0  0  0  0  0  0  0  0
  -16.8713  -23.4461   31.8899 H   0  0  0  0  0  0  0  0  0  0  0  0
  -16.5552  -22.1838   33.5196 H   0  0  0  0  0  0  0  0  0  0  0  0
  -16.5108  -20.5963   32.5659 H   0  0  0  0  0  0  0  0  0  0  0  0
  -15.4259  -20.7125   34.8596 H   0  0  0  0  0  0  0  0  0  0  0  0
  -14.6163  -19.8576   33.5483 H   0  0  0  0  0  0  0  0  0  0  0  0
  -14.0219  -22.7379   34.0500 H   0  0  0  0  0  0  0  0  0  0  0  0
  -10.4841  -22.0628   32.0909 H   0  0  0  0  0  0  0  0  0  0  0  0
   -9.0774  -24.2764   31.8628 H   0  0  0  0  0  0  0  0  0  0  0  0
  -11.3191  -26.0065   34.6850 H   0  0  0  0  0  0  0  0  0  0  0  0
  -12.9203  -24.1346   34.6543 H   0  0  0  0  0  0  0  0  0  0  0  0
  -13.2680  -22.7009   30.1621 H   0  0  0  0  0  0  0  0  0  0  0  0
  -13.8265  -24.4774   30.2777 H   0  0  0  0  0  0  0  0  0  0  0  0
  -11.8828  -24.9429   31.4893 H   0  0  0  0  0  0  0  0  0  0  0  0
  -11.2707  -23.5273   30.4998 H   0  0  0  0  0  0  0  0  0  0  0  0
  -10.5964  -25.4557   29.4415 H   0  0  0  0  0  0  0  0  0  0  0  0
  -12.1428  -26.2396   29.6190 H   0  0  0  0  0  0  0  0  0  0  0  0
  -12.7522  -26.6697   27.2594 H   0  0  0  0  0  0  0  0  0  0  0  0
  -12.2111  -22.8283   25.7620 H   0  0  0  0  0  0  0  0  0  0  0  0
  1  2  1  0
  2  3  1  0
  3  4  1  0
  4  5  1  0
  5  6  1  0
  6  7  1  0
  7  8  2  0
  7  9  1  0
  9 10  2  0
 10 11  1  0
 11 12  2  0
 12 13  1  0
 13 14  2  0
  3 15  1  0
 15 16  2  0
 15 17  1  0
 17 18  1  0
 18 19  1  0
 19 20  1  0
 20 21  1  0
 21 22  2  0
 22 23  1  0
 23 24  2  0
 14  9  1  0
 24 20  1  0
  1 25  1  0
  1 26  1  0
  1 27  1  0
  2 28  1  0
  2 29  1  0
  4 30  1  0
  4 31  1  0
  5 32  1  0
  5 33  1  0
  6 34  1  0
 10 35  1  0
 11 36  1  0
 13 37  1  0
 14 38  1  0
 17 39  1  0
 17 40  1  0
 18 41  1  0
 18 42  1  0
 19 43  1  0
 19 44  1  0
 21 45  1  0
 23 46  1  0
M  END
>  <Energy>  (1347) 
159.19908812873484

>  <compound_id>  (1347) 
69278

>  <target_id>  (1347) 
1

>  <reference_id>  (1347) 
82

>  <inspiration_ids>  (1347) 
[82, 54]

>  <energy_score>  (1347) 
138.87481879225203

>  <distance_score>  (1347) 
3.0446525725237086

>  <path>  (1347) 
/opt/xchem-fragalysis-2/maxwin/BulkDock/SCRATCH/511022/C69278-P82/C69278-P82.minimised.mol

>  <scratch_subdir>  (1347) 
/opt/xchem-fragalysis-2/maxwin/BulkDock/SCRATCH/511022/C69278-P82

>  <fragmenstein_runtime>  (1347) 
9.422354459762573

>  <fragmenstein_outcome>  (1347) 
too moved

>  <fragmenstein_mode>  (1347) 
expansion

>  <fragmenstein_error>  (1347) 


$$$$
C69278-P54
     RDKit          3D

 46 47  0  0  0  0  0  0  0  0999 V2000
  -14.5500  -31.8684   27.3434 C   0  0  0  0  0  0  0  0  0  0  0  0
  -15.4223  -31.1043   28.3586 C   0  0  0  0  0  0  0  0  0  0  0  0
  -15.0240  -29.7041   28.8265 N   0  0  0  0  0  0  0  0  0  0  0  0
  -14.0223  -30.4973   29.6479 C   0  0  0  0  0  0  0  0  0  0  0  0
  -13.5277  -29.5663   30.7938 C   0  0  0  0  0  0  0  0  0  0  0  0
  -12.9780  -28.3018   30.3628 N   0  0  0  0  0  0  0  0  0  0  0  0
  -11.8647  -28.0031   29.5241 C   0  0  0  0  0  0  0  0  0  0  0  0
  -11.1451  -28.7207   28.8970 O   0  0  0  0  0  0  0  0  0  0  0  0
  -11.5502  -26.5471   29.4940 C   0  0  0  0  0  0  0  0  0  0  0  0
  -11.2851  -25.9327   28.2765 C   0  0  0  0  0  0  0  0  0  0  0  0
  -10.8927  -24.6081   28.2990 C   0  0  0  0  0  0  0  0  0  0  0  0
  -10.7314  -23.8919   29.4329 N   0  0  0  0  0  0  0  0  0  0  0  0
  -10.9711  -24.5176   30.5984 C   0  0  0  0  0  0  0  0  0  0  0  0
  -11.3943  -25.8317   30.6830 C   0  0  0  0  0  0  0  0  0  0  0  0
  -14.8344  -28.8477   27.7005 C   0  0  0  0  0  0  0  0  0  0  0  0
  -13.8471  -28.6069   27.0591 O   0  0  0  0  0  0  0  0  0  0  0  0
  -16.1385  -28.1082   27.4249 C   0  0  0  0  0  0  0  0  0  0  0  0
  -15.8975  -26.8263   26.6287 C   0  0  0  0  0  0  0  0  0  0  0  0
  -15.1027  -25.7843   27.4246 C   0  0  0  0  0  0  0  0  0  0  0  0
  -14.7462  -24.6448   26.6149 N   0  0  0  0  0  0  0  0  0  0  0  0
  -15.5963  -23.7874   26.0003 C   0  0  0  0  0  0  0  0  0  0  0  0
  -14.9057  -22.9192   25.3055 N   0  0  0  0  0  0  0  0  0  0  0  0
  -13.6126  -23.2362   25.6078 C   0  0  0  0  0  0  0  0  0  0  0  0
  -13.4636  -24.3241   26.3724 N   0  0  0  0  0  0  0  0  0  0  0  0
  -14.2130  -31.2240   26.5270 H   0  0  0  0  0  0  0  0  0  0  0  0
  -13.6723  -32.3303   27.8041 H   0  0  0  0  0  0  0  0  0  0  0  0
  -15.1372  -32.6814   26.9021 H   0  0  0  0  0  0  0  0  0  0  0  0
  -15.8490  -31.7457   29.1482 H   0  0  0  0  0  0  0  0  0  0  0  0
  -16.3353  -30.8917   27.7784 H   0  0  0  0  0  0  0  0  0  0  0  0
  -14.3778  -31.3767   30.2065 H   0  0  0  0  0  0  0  0  0  0  0  0
  -13.1320  -30.7144   29.0433 H   0  0  0  0  0  0  0  0  0  0  0  0
  -12.7511  -30.0832   31.3628 H   0  0  0  0  0  0  0  0  0  0  0  0
  -14.3571  -29.3369   31.4716 H   0  0  0  0  0  0  0  0  0  0  0  0
  -13.4025  -27.4367   30.6667 H   0  0  0  0  0  0  0  0  0  0  0  0
  -11.3785  -26.4690   27.3381 H   0  0  0  0  0  0  0  0  0  0  0  0
  -10.6900  -24.0691   27.3771 H   0  0  0  0  0  0  0  0  0  0  0  0
  -10.7967  -23.9101   31.4814 H   0  0  0  0  0  0  0  0  0  0  0  0
  -11.5255  -26.3058   31.6468 H   0  0  0  0  0  0  0  0  0  0  0  0
  -16.7877  -28.7731   26.8448 H   0  0  0  0  0  0  0  0  0  0  0  0
  -16.6422  -27.8713   28.3690 H   0  0  0  0  0  0  0  0  0  0  0  0
  -16.8692  -26.4058   26.3415 H   0  0  0  0  0  0  0  0  0  0  0  0
  -15.3733  -27.0573   25.6936 H   0  0  0  0  0  0  0  0  0  0  0  0
  -15.6947  -25.4095   28.2673 H   0  0  0  0  0  0  0  0  0  0  0  0
  -14.1796  -26.2011   27.8332 H   0  0  0  0  0  0  0  0  0  0  0  0
  -16.6732  -23.8345   26.0835 H   0  0  0  0  0  0  0  0  0  0  0  0
  -12.7674  -22.6581   25.2534 H   0  0  0  0  0  0  0  0  0  0  0  0
  1  2  1  0
  2  3  1  0
  3  4  1  0
  4  5  1  0
  5  6  1  0
  6  7  1  0
  7  8  2  0
  7  9  1  0
  9 10  2  0
 10 11  1  0
 11 12  2  0
 12 13  1  0
 13 14  2  0
  3 15  1  0
 15 16  2  0
 15 17  1  0
 17 18  1  0
 18 19  1  0
 19 20  1  0
 20 21  1  0
 21 22  2  0
 22 23  1  0
 23 24  2  0
 14  9  1  0
 24 20  1  0
  1 25  1  0
  1 26  1  0
  1 27  1  0
  2 28  1  0
  2 29  1  0
  4 30  1  0
  4 31  1  0
  5 32  1  0
  5 33  1  0
  6 34  1  0
 10 35  1  0
 11 36  1  0
 13 37  1  0
 14 38  1  0
 17 39  1  0
 17 40  1  0
 18 41  1  0
 18 42  1  0
 19 43  1  0
 19 44  1  0
 21 45  1  0
 23 46  1  0
M  END
>  <Energy>  (1348) 
79.025020384499825

>  <compound_id>  (1348) 
69278

>  <target_id>  (1348) 
1

>  <reference_id>  (1348) 
54

>  <inspiration_ids>  (1348) 
[82, 54]

>  <energy_score>  (1348) 
58.70075104801356

>  <distance_score>  (1348) 
4.17801743981053

>  <path>  (1348) 
/opt/xchem-fragalysis-2/maxwin/BulkDock/SCRATCH/511022/C69278-P54/C69278-P54.minimised.mol

>  <scratch_subdir>  (1348) 
/opt/xchem-fragalysis-2/maxwin/BulkDock/SCRATCH/511022/C69278-P54

>  <fragmenstein_runtime>  (1348) 
7.707000970840454

>  <fragmenstein_outcome>  (1348) 
too moved

>  <fragmenstein_mode>  (1348) 
expansion

>  <fragmenstein_error>  (1348) 


$$$$
C30987-P82
     RDKit          3D

 41 42  0  0  0  0  0  0  0  0999 V2000
  -11.9617  -22.5466   26.5297 C   0  0  0  0  0  0  0  0  0  0  0  0
  -12.1034  -23.7277   25.5571 C   0  0  0  0  0  0  0  0  0  0  0  0
  -13.5184  -23.7822   24.9807 C   0  0  0  0  0  0  0  0  0  0  0  0
  -11.8537  -24.9298   26.3952 C   0  0  0  0  0  0  0  0  0  0  0  0
  -11.8316  -26.2216   25.9310 C   0  0  0  0  0  0  0  0  0  0  0  0
  -11.8602  -27.2420   26.8633 C   0  0  0  0  0  0  0  0  0  0  0  0
  -11.9901  -26.9286   28.2050 C   0  0  0  0  0  0  0  0  0  0  0  0
  -12.0674  -25.6049   28.5443 C   0  0  0  0  0  0  0  0  0  0  0  0
  -12.5189  -25.1791   29.7475 N   0  0  0  0  0  0  0  0  0  0  0  0
  -12.4964  -23.7722   30.3834 C   0  0  0  0  0  0  0  0  0  0  0  0
  -12.1642  -22.7740   29.9500 O   0  0  0  0  0  0  0  0  0  0  0  0
  -12.9579  -24.1349   31.8041 N   0  0  0  0  0  0  0  0  0  0  0  0
  -13.0054  -23.3580   32.9699 C   0  0  0  0  0  0  0  0  0  0  0  0
  -11.6743  -23.6749   33.6561 C   0  0  0  0  0  0  0  0  0  0  0  0
  -10.4824  -23.7923   32.6846 C   0  0  0  0  0  0  0  0  0  0  0  0
  -10.3237  -25.0468   31.9978 N   0  0  0  0  0  0  0  0  0  0  0  0
   -9.8572  -25.2580   30.7521 C   0  0  0  0  0  0  0  0  0  0  0  0
   -9.8879  -26.5223   30.4426 N   0  0  0  0  0  0  0  0  0  0  0  0
  -10.3948  -27.0516   31.5574 C   0  0  0  0  0  0  0  0  0  0  0  0
  -10.7499  -26.1934   32.5204 N   0  0  0  0  0  0  0  0  0  0  0  0
  -11.8472  -24.6523   27.6918 N   0  0  0  0  0  0  0  0  0  0  0  0
  -11.0644  -22.5863   27.1536 H   0  0  0  0  0  0  0  0  0  0  0  0
  -12.7733  -22.5381   27.2612 H   0  0  0  0  0  0  0  0  0  0  0  0
  -11.9254  -21.6049   25.9965 H   0  0  0  0  0  0  0  0  0  0  0  0
  -11.3622  -23.6858   24.7552 H   0  0  0  0  0  0  0  0  0  0  0  0
  -13.6835  -22.9790   24.2571 H   0  0  0  0  0  0  0  0  0  0  0  0
  -14.2491  -23.7054   25.7756 H   0  0  0  0  0  0  0  0  0  0  0  0
  -13.7760  -24.7315   24.5077 H   0  0  0  0  0  0  0  0  0  0  0  0
  -11.8461  -26.4495   24.8780 H   0  0  0  0  0  0  0  0  0  0  0  0
  -11.8387  -28.2790   26.5406 H   0  0  0  0  0  0  0  0  0  0  0  0
  -12.0508  -27.7090   28.9462 H   0  0  0  0  0  0  0  0  0  0  0  0
  -12.7934  -25.8500   30.4292 H   0  0  0  0  0  0  0  0  0  0  0  0
  -13.1022  -25.1292   31.8692 H   0  0  0  0  0  0  0  0  0  0  0  0
  -13.0665  -22.3004   32.6971 H   0  0  0  0  0  0  0  0  0  0  0  0
  -13.8633  -23.6448   33.5823 H   0  0  0  0  0  0  0  0  0  0  0  0
  -11.5650  -22.8596   34.3603 H   0  0  0  0  0  0  0  0  0  0  0  0
  -11.7644  -24.6013   34.2254 H   0  0  0  0  0  0  0  0  0  0  0  0
  -10.6265  -22.9993   31.9666 H   0  0  0  0  0  0  0  0  0  0  0  0
   -9.5024  -23.6439   33.1251 H   0  0  0  0  0  0  0  0  0  0  0  0
   -9.6106  -24.5014   30.0484 H   0  0  0  0  0  0  0  0  0  0  0  0
  -10.5248  -28.1181   31.6699 H   0  0  0  0  0  0  0  0  0  0  0  0
  1  2  1  0
  2  3  1  0
  2  4  1  0
  4  5  2  0
  5  6  1  0
  6  7  2  0
  7  8  1  0
  8  9  1  0
  9 10  1  0
 10 11  2  0
 10 12  1  0
 12 13  1  0
 13 14  1  0
 14 15  1  0
 15 16  1  0
 16 17  1  0
 17 18  2  0
 18 19  1  0
 19 20  2  0
  8 21  2  0
 21  4  1  0
 20 16  1  0
  1 22  1  0
  1 23  1  0
  1 24  1  0
  2 25  1  0
  3 26  1  0
  3 27  1  0
  3 28  1  0
  5 29  1  0
  6 30  1  0
  7 31  1  0
  9 32  1  0
 12 33  1  0
 13 34  1  0
 13 35  1  0
 14 36  1  0
 14 37  1  0
 15 38  1  0
 15 39  1  0
 17 40  1  0
 19 41  1  0
M  END
>  <Energy>  (1349) 
-9.7233273960595916

>  <compound_id>  (1349) 
30987

>  <target_id>  (1349) 
1

>  <reference_id>  (1349) 
82

>  <inspiration_ids>  (1349) 
[82, 54]

>  <energy_score>  (1349) 
38.214428555036136

>  <distance_score>  (1349) 
3.0045117223212774

>  <path>  (1349) 
/opt/xchem-fragalysis-2/maxwin/BulkDock/SCRATCH/511022/C30987-P82/C30987-P82.minimised.mol

>  <scratch_subdir>  (1349) 
/opt/xchem-fragalysis-2/maxwin/BulkDock/SCRATCH/511022/C30987-P82

>  <fragmenstein_runtime>  (1349) 
10.8469717502594

>  <fragmenstein_outcome>  (1349) 
too moved

>  <fragmenstein_mode>  (1349) 
expansion

>  <fragmenstein_error>  (1349) 


$$$$
C30987-P54
     RDKit          3D

 41 42  0  0  0  0  0  0  0  0999 V2000
  -12.1682  -22.1820   24.4181 C   0  0  0  0  0  0  0  0  0  0  0  0
  -12.6120  -22.6196   25.8076 C   0  0  0  0  0  0  0  0  0  0  0  0
  -11.6552  -22.0526   26.8791 C   0  0  0  0  0  0  0  0  0  0  0  0
  -12.7727  -24.0951   26.0713 C   0  0  0  0  0  0  0  0  0  0  0  0
  -14.0229  -24.7000   26.1370 C   0  0  0  0  0  0  0  0  0  0  0  0
  -14.1289  -25.9188   26.7994 C   0  0  0  0  0  0  0  0  0  0  0  0
  -13.0398  -26.3589   27.5408 C   0  0  0  0  0  0  0  0  0  0  0  0
  -11.8885  -25.5926   27.4820 C   0  0  0  0  0  0  0  0  0  0  0  0
  -11.4414  -25.0968   28.6862 N   0  0  0  0  0  0  0  0  0  0  0  0
  -10.2836  -24.2322   29.0047 C   0  0  0  0  0  0  0  0  0  0  0  0
   -9.4267  -23.8302   28.3163 O   0  0  0  0  0  0  0  0  0  0  0  0
  -10.5785  -23.9506   30.4059 N   0  0  0  0  0  0  0  0  0  0  0  0
   -9.8705  -23.1927   31.3653 C   0  0  0  0  0  0  0  0  0  0  0  0
   -8.9851  -24.2201   32.0255 C   0  0  0  0  0  0  0  0  0  0  0  0
   -9.7013  -25.2129   32.9267 C   0  0  0  0  0  0  0  0  0  0  0  0
  -10.7440  -26.1630   32.4818 N   0  0  0  0  0  0  0  0  0  0  0  0
  -11.0887  -27.3400   33.1186 C   0  0  0  0  0  0  0  0  0  0  0  0
  -12.1092  -27.9158   32.5419 N   0  0  0  0  0  0  0  0  0  0  0  0
  -12.3673  -27.0988   31.5014 C   0  0  0  0  0  0  0  0  0  0  0  0
  -11.6165  -25.9933   31.4400 N   0  0  0  0  0  0  0  0  0  0  0  0
  -11.6719  -24.7231   26.5056 N   0  0  0  0  0  0  0  0  0  0  0  0
  -12.1612  -21.0923   24.3194 H   0  0  0  0  0  0  0  0  0  0  0  0
  -11.1533  -22.5185   24.1936 H   0  0  0  0  0  0  0  0  0  0  0  0
  -12.8584  -22.5547   23.6587 H   0  0  0  0  0  0  0  0  0  0  0  0
  -13.6190  -22.2286   25.9416 H   0  0  0  0  0  0  0  0  0  0  0  0
  -10.6531  -22.4693   26.7534 H   0  0  0  0  0  0  0  0  0  0  0  0
  -11.5222  -20.9727   26.8347 H   0  0  0  0  0  0  0  0  0  0  0  0
  -12.0014  -22.2861   27.8911 H   0  0  0  0  0  0  0  0  0  0  0  0
  -14.9121  -24.1957   25.7785 H   0  0  0  0  0  0  0  0  0  0  0  0
  -15.0890  -26.4205   26.8768 H   0  0  0  0  0  0  0  0  0  0  0  0
  -13.1606  -27.1475   28.2718 H   0  0  0  0  0  0  0  0  0  0  0  0
  -11.9318  -25.3154   29.5281 H   0  0  0  0  0  0  0  0  0  0  0  0
  -11.3417  -24.5309   30.7065 H   0  0  0  0  0  0  0  0  0  0  0  0
   -9.2749  -22.4380   30.8536 H   0  0  0  0  0  0  0  0  0  0  0  0
  -10.5718  -22.7220   32.0583 H   0  0  0  0  0  0  0  0  0  0  0  0
   -8.2360  -23.6950   32.6297 H   0  0  0  0  0  0  0  0  0  0  0  0
   -8.4837  -24.7852   31.2455 H   0  0  0  0  0  0  0  0  0  0  0  0
  -10.1048  -24.5791   33.7130 H   0  0  0  0  0  0  0  0  0  0  0  0
   -8.9416  -25.8216   33.4296 H   0  0  0  0  0  0  0  0  0  0  0  0
  -10.5355  -27.7313   33.9534 H   0  0  0  0  0  0  0  0  0  0  0  0
  -13.1475  -27.3000   30.7780 H   0  0  0  0  0  0  0  0  0  0  0  0
  1  2  1  0
  2  3  1  0
  2  4  1  0
  4  5  2  0
  5  6  1  0
  6  7  2  0
  7  8  1  0
  8  9  1  0
  9 10  1  0
 10 11  2  0
 10 12  1  0
 12 13  1  0
 13 14  1  0
 14 15  1  0
 15 16  1  0
 16 17  1  0
 17 18  2  0
 18 19  1  0
 19 20  2  0
  8 21  2  0
 21  4  1  0
 20 16  1  0
  1 22  1  0
  1 23  1  0
  1 24  1  0
  2 25  1  0
  3 26  1  0
  3 27  1  0
  3 28  1  0
  5 29  1  0
  6 30  1  0
  7 31  1  0
  9 32  1  0
 12 33  1  0
 13 34  1  0
 13 35  1  0
 14 36  1  0
 14 37  1  0
 15 38  1  0
 15 39  1  0
 17 40  1  0
 19 41  1  0
M  END
>  <Energy>  (1350) 
-5.4421856433702533

>  <compound_id>  (1350) 
30987

>  <target_id>  (1350) 
1

>  <reference_id>  (1350) 
54

>  <inspiration_ids>  (1350) 
[82, 54]

>  <energy_score>  (1350) 
20.38586262305455

>  <distance_score>  (1350) 
3.248396318123106

>  <path>  (1350) 
/opt/xchem-fragalysis-2/maxwin/BulkDock/SCRATCH/511022/C30987-P54/C30987-P54.minimised.mol

>  <scratch_subdir>  (1350) 
/opt/xchem-fragalysis-2/maxwin/BulkDock/SCRATCH/511022/C30987-P54

>  <fragmenstein_runtime>  (1350) 
9.980663776397705

>  <fragmenstein_outcome>  (1350) 
too moved

>  <fragmenstein_mode>  (1350) 
expansion

>  <fragmenstein_error>  (1350) 


$$$$
C34590-P82
     RDKit          3D

 41 43  0  0  0  0  0  0  0  0999 V2000
  -10.2460  -25.4550   33.1549 C   0  0  0  0  0  0  0  0  0  0  0  0
  -10.4245  -24.3245   32.1679 C   0  0  0  0  0  0  0  0  0  0  0  0
  -11.8922  -24.2051   31.7668 C   0  0  0  0  0  0  0  0  0  0  0  0
  -12.1043  -24.5186   30.3816 N   0  0  0  0  0  0  0  0  0  0  0  0
  -11.6067  -25.6311   29.5626 C   0  0  0  0  0  0  0  0  0  0  0  0
  -10.8532  -26.4845   29.8276 O   0  0  0  0  0  0  0  0  0  0  0  0
  -12.4077  -25.4138   28.3452 N   0  0  0  0  0  0  0  0  0  0  0  0
  -12.5652  -26.1908   27.2285 C   0  0  0  0  0  0  0  0  0  0  0  0
  -13.3337  -25.7095   26.1910 C   0  0  0  0  0  0  0  0  0  0  0  0
  -13.7522  -26.6126   25.2209 C   0  0  0  0  0  0  0  0  0  0  0  0
  -13.3707  -27.9587   25.2763 C   0  0  0  0  0  0  0  0  0  0  0  0
  -13.7929  -28.9702   24.2412 C   0  0  0  0  0  0  0  0  0  0  0  0
  -15.2212  -29.0306   23.7525 C   0  0  0  0  0  0  0  0  0  0  0  0
  -14.6956  -30.1131   24.6456 C   0  0  0  0  0  0  0  0  0  0  0  0
  -12.5410  -28.3085   26.3358 C   0  0  0  0  0  0  0  0  0  0  0  0
  -12.1438  -27.4628   27.3013 N   0  0  0  0  0  0  0  0  0  0  0  0
  -12.6138  -22.9315   32.1455 C   0  0  0  0  0  0  0  0  0  0  0  0
  -13.8688  -22.8077   31.6688 N   0  0  0  0  0  0  0  0  0  0  0  0
  -14.6992  -21.9833   32.3087 C   0  0  0  0  0  0  0  0  0  0  0  0
  -14.2836  -21.1829   33.3346 C   0  0  0  0  0  0  0  0  0  0  0  0
  -12.9404  -21.2501   33.6337 C   0  0  0  0  0  0  0  0  0  0  0  0
  -12.0904  -22.1148   33.0647 N   0  0  0  0  0  0  0  0  0  0  0  0
  -10.5607  -26.3953   32.6975 H   0  0  0  0  0  0  0  0  0  0  0  0
  -10.8509  -25.3087   34.0543 H   0  0  0  0  0  0  0  0  0  0  0  0
   -9.1960  -25.5280   33.4435 H   0  0  0  0  0  0  0  0  0  0  0  0
  -10.0396  -23.4122   32.6180 H   0  0  0  0  0  0  0  0  0  0  0  0
   -9.7914  -24.5477   31.3043 H   0  0  0  0  0  0  0  0  0  0  0  0
  -12.4450  -24.9832   32.3020 H   0  0  0  0  0  0  0  0  0  0  0  0
  -12.8093  -24.0170   29.8679 H   0  0  0  0  0  0  0  0  0  0  0  0
  -12.8868  -24.5378   28.4172 H   0  0  0  0  0  0  0  0  0  0  0  0
  -13.6441  -24.6723   26.1393 H   0  0  0  0  0  0  0  0  0  0  0  0
  -14.3925  -26.2616   24.4143 H   0  0  0  0  0  0  0  0  0  0  0  0
  -13.0293  -29.2209   23.5053 H   0  0  0  0  0  0  0  0  0  0  0  0
  -15.9610  -28.3568   24.1696 H   0  0  0  0  0  0  0  0  0  0  0  0
  -15.3894  -29.2727   22.7085 H   0  0  0  0  0  0  0  0  0  0  0  0
  -15.0724  -30.1555   25.6616 H   0  0  0  0  0  0  0  0  0  0  0  0
  -14.5070  -31.0871   24.2072 H   0  0  0  0  0  0  0  0  0  0  0  0
  -12.1740  -29.3265   26.4438 H   0  0  0  0  0  0  0  0  0  0  0  0
  -15.7300  -22.0083   31.9720 H   0  0  0  0  0  0  0  0  0  0  0  0
  -14.9566  -20.5214   33.8600 H   0  0  0  0  0  0  0  0  0  0  0  0
  -12.5016  -20.6085   34.3933 H   0  0  0  0  0  0  0  0  0  0  0  0
  1  2  1  0
  2  3  1  0
  3  4  1  0
  4  5  1  0
  5  6  2  0
  5  7  1  0
  7  8  1  0
  8  9  2  0
  9 10  1  0
 10 11  2  0
 11 12  1  0
 12 13  1  0
 13 14  1  0
 11 15  1  0
 15 16  2  0
  3 17  1  0
 17 18  2  0
 18 19  1  0
 19 20  2  0
 20 21  1  0
 21 22  2  0
 16  8  1  0
 22 17  1  0
 14 12  1  0
  1 23  1  0
  1 24  1  0
  1 25  1  0
  2 26  1  0
  2 27  1  0
  3 28  1  0
  4 29  1  0
  7 30  1  0
  9 31  1  0
 10 32  1  0
 12 33  1  0
 13 34  1  0
 13 35  1  0
 14 36  1  0
 14 37  1  0
 15 38  1  0
 19 39  1  0
 20 40  1  0
 21 41  1  0
M  END
>  <Energy>  (1351) 
-16.437578502554487

>  <compound_id>  (1351) 
34590

>  <target_id>  (1351) 
1

>  <reference_id>  (1351) 
82

>  <inspiration_ids>  (1351) 
[82, 54]

>  <energy_score>  (1351) 
-8.602995916934034

>  <distance_score>  (1351) 
5.754522459685894

>  <path>  (1351) 
/opt/xchem-fragalysis-2/maxwin/BulkDock/SCRATCH/511022/C34590-P82/C34590-P82.minimised.mol

>  <scratch_subdir>  (1351) 
/opt/xchem-fragalysis-2/maxwin/BulkDock/SCRATCH/511022/C34590-P82

>  <fragmenstein_runtime>  (1351) 
8.577303409576416

>  <fragmenstein_outcome>  (1351) 
too moved

>  <fragmenstein_mode>  (1351) 
expansion

>  <fragmenstein_error>  (1351) 


$$$$
C34590-P54
     RDKit          3D

 41 43  0  0  0  0  0  0  0  0999 V2000
  -10.7022  -23.1567   30.8216 C   0  0  0  0  0  0  0  0  0  0  0  0
  -10.2058  -24.4961   30.3036 C   0  0  0  0  0  0  0  0  0  0  0  0
  -11.1840  -25.3102   29.4296 C   0  0  0  0  0  0  0  0  0  0  0  0
  -12.2991  -25.8981   30.1446 N   0  0  0  0  0  0  0  0  0  0  0  0
  -12.3355  -26.7130   31.3694 C   0  0  0  0  0  0  0  0  0  0  0  0
  -11.4755  -27.0144   32.0997 O   0  0  0  0  0  0  0  0  0  0  0  0
  -13.7927  -26.9549   31.4584 N   0  0  0  0  0  0  0  0  0  0  0  0
  -14.5502  -27.5167   32.4612 C   0  0  0  0  0  0  0  0  0  0  0  0
  -15.9256  -27.4645   32.3371 C   0  0  0  0  0  0  0  0  0  0  0  0
  -16.6958  -27.8400   33.4337 C   0  0  0  0  0  0  0  0  0  0  0  0
  -16.0939  -28.2827   34.6171 C   0  0  0  0  0  0  0  0  0  0  0  0
  -16.9010  -28.6755   35.8274 C   0  0  0  0  0  0  0  0  0  0  0  0
  -17.9843  -29.7230   35.7103 C   0  0  0  0  0  0  0  0  0  0  0  0
  -16.7202  -30.0414   36.4490 C   0  0  0  0  0  0  0  0  0  0  0  0
  -14.7022  -28.3121   34.6106 C   0  0  0  0  0  0  0  0  0  0  0  0
  -13.9266  -27.9390   33.5727 N   0  0  0  0  0  0  0  0  0  0  0  0
  -11.7347  -24.5430   28.2362 C   0  0  0  0  0  0  0  0  0  0  0  0
  -10.8941  -23.8237   27.4767 N   0  0  0  0  0  0  0  0  0  0  0  0
  -11.4497  -23.1977   26.4268 C   0  0  0  0  0  0  0  0  0  0  0  0
  -12.7795  -23.2813   26.0922 C   0  0  0  0  0  0  0  0  0  0  0  0
  -13.5473  -24.0770   26.9000 C   0  0  0  0  0  0  0  0  0  0  0  0
  -13.0626  -24.7022   27.9822 N   0  0  0  0  0  0  0  0  0  0  0  0
  -11.5653  -23.2832   31.4696 H   0  0  0  0  0  0  0  0  0  0  0  0
  -10.9753  -22.4790   30.0078 H   0  0  0  0  0  0  0  0  0  0  0  0
   -9.9166  -22.6689   31.4082 H   0  0  0  0  0  0  0  0  0  0  0  0
   -9.9012  -25.0900   31.1700 H   0  0  0  0  0  0  0  0  0  0  0  0
   -9.2954  -24.3030   29.7213 H   0  0  0  0  0  0  0  0  0  0  0  0
  -10.6556  -26.1667   29.0071 H   0  0  0  0  0  0  0  0  0  0  0  0
  -13.2338  -25.7682   29.8043 H   0  0  0  0  0  0  0  0  0  0  0  0
  -14.2326  -26.6343   30.6209 H   0  0  0  0  0  0  0  0  0  0  0  0
  -16.4079  -27.0960   31.4395 H   0  0  0  0  0  0  0  0  0  0  0  0
  -17.7800  -27.7801   33.3707 H   0  0  0  0  0  0  0  0  0  0  0  0
  -17.1052  -27.8624   36.5229 H   0  0  0  0  0  0  0  0  0  0  0  0
  -18.8899  -29.5803   36.2893 H   0  0  0  0  0  0  0  0  0  0  0  0
  -18.1448  -30.2144   34.7571 H   0  0  0  0  0  0  0  0  0  0  0  0
  -16.0379  -30.7479   35.9890 H   0  0  0  0  0  0  0  0  0  0  0  0
  -16.7697  -30.1167   37.5296 H   0  0  0  0  0  0  0  0  0  0  0  0
  -14.1533  -28.6472   35.4856 H   0  0  0  0  0  0  0  0  0  0  0  0
  -10.7678  -22.6245   25.8152 H   0  0  0  0  0  0  0  0  0  0  0  0
  -13.1878  -22.7460   25.2454 H   0  0  0  0  0  0  0  0  0  0  0  0
  -14.6088  -24.2120   26.7144 H   0  0  0  0  0  0  0  0  0  0  0  0
  1  2  1  0
  2  3  1  0
  3  4  1  0
  4  5  1  0
  5  6  2  0
  5  7  1  0
  7  8  1  0
  8  9  2  0
  9 10  1  0
 10 11  2  0
 11 12  1  0
 12 13  1  0
 13 14  1  0
 11 15  1  0
 15 16  2  0
  3 17  1  0
 17 18  2  0
 18 19  1  0
 19 20  2  0
 20 21  1  0
 21 22  2  0
 16  8  1  0
 22 17  1  0
 14 12  1  0
  1 23  1  0
  1 24  1  0
  1 25  1  0
  2 26  1  0
  2 27  1  0
  3 28  1  0
  4 29  1  0
  7 30  1  0
  9 31  1  0
 10 32  1  0
 12 33  1  0
 13 34  1  0
 13 35  1  0
 14 36  1  0
 14 37  1  0
 15 38  1  0
 19 39  1  0
 20 40  1  0
 21 41  1  0
M  END
>  <Energy>  (1352) 
-26.374792346652871

>  <compound_id>  (1352) 
34590

>  <target_id>  (1352) 
1

>  <reference_id>  (1352) 
54

>  <inspiration_ids>  (1352) 
[82, 54]

>  <energy_score>  (1352) 
-18.540209761030916

>  <distance_score>  (1352) 
4.367090262371652

>  <path>  (1352) 
/opt/xchem-fragalysis-2/maxwin/BulkDock/SCRATCH/511022/C34590-P54/C34590-P54.minimised.mol

>  <scratch_subdir>  (1352) 
/opt/xchem-fragalysis-2/maxwin/BulkDock/SCRATCH/511022/C34590-P54

>  <fragmenstein_runtime>  (1352) 
8.242563962936401

>  <fragmenstein_outcome>  (1352) 
too moved

>  <fragmenstein_mode>  (1352) 
expansion

>  <fragmenstein_error>  (1352) 


$$$$
C69279-P82
     RDKit          3D

 36 37  0  0  0  0  0  0  0  0999 V2000
  -13.7146  -27.0997   25.4743 C   0  0  0  0  0  0  0  0  0  0  0  0
  -11.9543  -26.7859   25.7706 S   0  0  0  0  0  0  0  0  0  0  0  0
  -12.0854  -25.2191   26.5787 C   0  0  0  0  0  0  0  0  0  0  0  0
  -11.8913  -24.0065   25.9561 C   0  0  0  0  0  0  0  0  0  0  0  0
  -11.9162  -22.8592   26.7366 C   0  0  0  0  0  0  0  0  0  0  0  0
  -12.0407  -22.8237   28.0601 N   0  0  0  0  0  0  0  0  0  0  0  0
  -12.2908  -24.0005   28.6041 C   0  0  0  0  0  0  0  0  0  0  0  0
  -12.4538  -24.1387   29.9356 N   0  0  0  0  0  0  0  0  0  0  0  0
  -12.1402  -23.1830   31.0685 C   0  0  0  0  0  0  0  0  0  0  0  0
  -11.7707  -22.1153   31.0446 O   0  0  0  0  0  0  0  0  0  0  0  0
  -12.3721  -24.1164   32.2421 N   0  0  0  0  0  0  0  0  0  0  0  0
  -12.1048  -23.9448   33.6033 C   0  0  0  0  0  0  0  0  0  0  0  0
  -10.9876  -24.9852   33.7852 C   0  0  0  0  0  0  0  0  0  0  0  0
   -9.7502  -24.8474   32.8653 C   0  0  0  0  0  0  0  0  0  0  0  0
   -9.8904  -25.5334   31.6002 N   0  0  0  0  0  0  0  0  0  0  0  0
  -10.4326  -26.7455   31.3694 C   0  0  0  0  0  0  0  0  0  0  0  0
  -10.6013  -26.9400   30.0894 N   0  0  0  0  0  0  0  0  0  0  0  0
   -9.9099  -25.8998   29.5674 C   0  0  0  0  0  0  0  0  0  0  0  0
   -9.4955  -24.9995   30.4498 N   0  0  0  0  0  0  0  0  0  0  0  0
  -12.3520  -25.2046   27.9202 C   0  0  0  0  0  0  0  0  0  0  0  0
  -13.8233  -28.0367   24.9218 H   0  0  0  0  0  0  0  0  0  0  0  0
  -14.2536  -27.1897   26.4212 H   0  0  0  0  0  0  0  0  0  0  0  0
  -14.1556  -26.2929   24.8824 H   0  0  0  0  0  0  0  0  0  0  0  0
  -11.7081  -23.9141   24.8946 H   0  0  0  0  0  0  0  0  0  0  0  0
  -11.8319  -21.8792   26.2930 H   0  0  0  0  0  0  0  0  0  0  0  0
  -12.8379  -24.9823   30.3060 H   0  0  0  0  0  0  0  0  0  0  0  0
  -12.7849  -24.9748   31.9145 H   0  0  0  0  0  0  0  0  0  0  0  0
  -13.0165  -24.1901   34.1429 H   0  0  0  0  0  0  0  0  0  0  0  0
  -11.7866  -22.9227   33.8021 H   0  0  0  0  0  0  0  0  0  0  0  0
  -10.7537  -25.1327   34.8355 H   0  0  0  0  0  0  0  0  0  0  0  0
  -11.4091  -25.9382   33.5267 H   0  0  0  0  0  0  0  0  0  0  0  0
   -9.5049  -23.8016   32.6776 H   0  0  0  0  0  0  0  0  0  0  0  0
   -8.8980  -25.3329   33.3443 H   0  0  0  0  0  0  0  0  0  0  0  0
  -10.6902  -27.4334   32.1493 H   0  0  0  0  0  0  0  0  0  0  0  0
   -9.7047  -25.7811   28.5128 H   0  0  0  0  0  0  0  0  0  0  0  0
  -12.5098  -26.1331   28.4539 H   0  0  0  0  0  0  0  0  0  0  0  0
  1  2  1  0
  2  3  1  0
  3  4  2  0
  4  5  1  0
  5  6  2  0
  6  7  1  0
  7  8  1  0
  8  9  1  0
  9 10  2  0
  9 11  1  0
 11 12  1  0
 12 13  1  0
 13 14  1  0
 14 15  1  0
 15 16  1  0
 16 17  2  0
 17 18  1  0
 18 19  2  0
  7 20  2  0
 20  3  1  0
 19 15  1  0
  1 21  1  0
  1 22  1  0
  1 23  1  0
  4 24  1  0
  5 25  1  0
  8 26  1  0
 11 27  1  0
 12 28  1  0
 12 29  1  0
 13 30  1  0
 13 31  1  0
 14 32  1  0
 14 33  1  0
 16 34  1  0
 18 35  1  0
 20 36  1  0
M  END
>  <Energy>  (1353) 
-37.350528726236099

>  <compound_id>  (1353) 
69279

>  <target_id>  (1353) 
1

>  <reference_id>  (1353) 
82

>  <inspiration_ids>  (1353) 
[82, 54]

>  <energy_score>  (1353) 
12.786496221150436

>  <distance_score>  (1353) 
2.4934845824405953

>  <path>  (1353) 
/opt/xchem-fragalysis-2/maxwin/BulkDock/SCRATCH/511022/C69279-P82/C69279-P82.minimised.mol

>  <scratch_subdir>  (1353) 
/opt/xchem-fragalysis-2/maxwin/BulkDock/SCRATCH/511022/C69279-P82

>  <fragmenstein_runtime>  (1353) 
4.456871747970581

>  <fragmenstein_outcome>  (1353) 
too moved

>  <fragmenstein_mode>  (1353) 
expansion

>  <fragmenstein_error>  (1353) 


$$$$
C69279-P54
     RDKit          3D

 36 37  0  0  0  0  0  0  0  0999 V2000
  -13.1740  -27.6497   27.4553 C   0  0  0  0  0  0  0  0  0  0  0  0
  -11.4609  -27.0951   27.2411 S   0  0  0  0  0  0  0  0  0  0  0  0
  -11.6871  -25.3377   27.1765 C   0  0  0  0  0  0  0  0  0  0  0  0
  -12.6656  -24.7163   26.4193 C   0  0  0  0  0  0  0  0  0  0  0  0
  -12.7825  -23.3415   26.4976 C   0  0  0  0  0  0  0  0  0  0  0  0
  -12.1037  -22.5885   27.3744 N   0  0  0  0  0  0  0  0  0  0  0  0
  -11.1999  -23.2137   28.1084 C   0  0  0  0  0  0  0  0  0  0  0  0
  -10.7426  -22.6801   29.2711 N   0  0  0  0  0  0  0  0  0  0  0  0
  -11.3456  -21.5874   30.1720 C   0  0  0  0  0  0  0  0  0  0  0  0
  -12.2633  -20.9370   30.0234 O   0  0  0  0  0  0  0  0  0  0  0  0
  -10.4066  -21.7090   31.3616 N   0  0  0  0  0  0  0  0  0  0  0  0
  -10.4694  -21.1158   32.6473 C   0  0  0  0  0  0  0  0  0  0  0  0
   -9.3505  -21.7333   33.5253 C   0  0  0  0  0  0  0  0  0  0  0  0
   -8.3784  -22.7839   32.9642 C   0  0  0  0  0  0  0  0  0  0  0  0
   -8.9789  -24.0099   32.5351 N   0  0  0  0  0  0  0  0  0  0  0  0
   -9.2131  -25.1003   33.2756 C   0  0  0  0  0  0  0  0  0  0  0  0
  -10.1761  -25.7886   32.7077 N   0  0  0  0  0  0  0  0  0  0  0  0
  -10.3441  -25.1636   31.5059 C   0  0  0  0  0  0  0  0  0  0  0  0
   -9.5223  -24.1313   31.3062 N   0  0  0  0  0  0  0  0  0  0  0  0
  -10.8693  -24.5523   27.9617 C   0  0  0  0  0  0  0  0  0  0  0  0
  -13.1758  -28.7253   27.6520 H   0  0  0  0  0  0  0  0  0  0  0  0
  -13.6411  -27.1415   28.3034 H   0  0  0  0  0  0  0  0  0  0  0  0
  -13.7587  -27.4682   26.5499 H   0  0  0  0  0  0  0  0  0  0  0  0
  -13.3096  -25.2726   25.7494 H   0  0  0  0  0  0  0  0  0  0  0  0
  -13.4870  -22.7986   25.8728 H   0  0  0  0  0  0  0  0  0  0  0  0
   -9.9686  -23.1187   29.7427 H   0  0  0  0  0  0  0  0  0  0  0  0
   -9.7444  -22.4370   31.1920 H   0  0  0  0  0  0  0  0  0  0  0  0
  -10.3738  -20.0302   32.5554 H   0  0  0  0  0  0  0  0  0  0  0  0
  -11.4542  -21.3219   33.0743 H   0  0  0  0  0  0  0  0  0  0  0  0
   -8.6993  -20.8937   33.7579 H   0  0  0  0  0  0  0  0  0  0  0  0
   -9.7869  -22.0842   34.4679 H   0  0  0  0  0  0  0  0  0  0  0  0
   -7.8340  -22.3890   32.1115 H   0  0  0  0  0  0  0  0  0  0  0  0
   -7.6329  -23.0269   33.7252 H   0  0  0  0  0  0  0  0  0  0  0  0
   -8.7031  -25.3112   34.2019 H   0  0  0  0  0  0  0  0  0  0  0  0
  -11.0617  -25.4893   30.7645 H   0  0  0  0  0  0  0  0  0  0  0  0
  -10.0937  -25.0038   28.5677 H   0  0  0  0  0  0  0  0  0  0  0  0
  1  2  1  0
  2  3  1  0
  3  4  2  0
  4  5  1  0
  5  6  2  0
  6  7  1  0
  7  8  1  0
  8  9  1  0
  9 10  2  0
  9 11  1  0
 11 12  1  0
 12 13  1  0
 13 14  1  0
 14 15  1  0
 15 16  1  0
 16 17  2  0
 17 18  1  0
 18 19  2  0
  7 20  2  0
 20  3  1  0
 19 15  1  0
  1 21  1  0
  1 22  1  0
  1 23  1  0
  4 24  1  0
  5 25  1  0
  8 26  1  0
 11 27  1  0
 12 28  1  0
 12 29  1  0
 13 30  1  0
 13 31  1  0
 14 32  1  0
 14 33  1  0
 16 34  1  0
 18 35  1  0
 20 36  1  0
M  END
>  <Energy>  (1354) 
-41.220837420414398

>  <compound_id>  (1354) 
69279

>  <target_id>  (1354) 
1

>  <reference_id>  (1354) 
54

>  <inspiration_ids>  (1354) 
[82, 54]

>  <energy_score>  (1354) 
8.916187526969303

>  <distance_score>  (1354) 
2.283828957121689

>  <path>  (1354) 
/opt/xchem-fragalysis-2/maxwin/BulkDock/SCRATCH/511022/C69279-P54/C69279-P54.minimised.mol

>  <scratch_subdir>  (1354) 
/opt/xchem-fragalysis-2/maxwin/BulkDock/SCRATCH/511022/C69279-P54

>  <fragmenstein_runtime>  (1354) 
5.067288160324097

>  <fragmenstein_outcome>  (1354) 
too moved

>  <fragmenstein_mode>  (1354) 
expansion

>  <fragmenstein_error>  (1354) 


$$$$
C69280-P82
     RDKit          3D

 36 37  0  0  0  0  0  0  0  0999 V2000
  -15.6686  -20.8873   31.1073 N   0  0  0  0  0  0  0  0  0  0  0  0
  -16.8975  -21.2094   31.7763 C   0  0  0  0  0  0  0  0  0  0  0  0
  -17.9718  -20.6876   31.7271 O   0  0  0  0  0  0  0  0  0  0  0  0
  -16.6445  -22.3689   32.6888 C   0  0  0  0  0  0  0  0  0  0  0  0
  -17.6556  -23.0831   33.2905 C   0  0  0  0  0  0  0  0  0  0  0  0
  -17.2755  -24.1429   34.1010 C   0  0  0  0  0  0  0  0  0  0  0  0
  -15.9227  -24.4360   34.2637 C   0  0  0  0  0  0  0  0  0  0  0  0
  -14.9827  -23.6682   33.5909 C   0  0  0  0  0  0  0  0  0  0  0  0
  -13.6586  -24.0436   33.6387 N   0  0  0  0  0  0  0  0  0  0  0  0
  -12.5039  -23.6294   32.8032 C   0  0  0  0  0  0  0  0  0  0  0  0
  -12.4341  -22.8231   31.9530 O   0  0  0  0  0  0  0  0  0  0  0  0
  -11.4893  -24.6006   33.2885 N   0  0  0  0  0  0  0  0  0  0  0  0
  -10.1681  -24.9023   32.8015 C   0  0  0  0  0  0  0  0  0  0  0  0
  -10.1883  -25.7727   31.5614 C   0  0  0  0  0  0  0  0  0  0  0  0
  -10.4762  -24.9956   30.2896 C   0  0  0  0  0  0  0  0  0  0  0  0
  -11.4075  -25.5767   29.3552 N   0  0  0  0  0  0  0  0  0  0  0  0
  -12.1776  -24.8811   28.4743 C   0  0  0  0  0  0  0  0  0  0  0  0
  -12.6637  -25.6976   27.5663 N   0  0  0  0  0  0  0  0  0  0  0  0
  -12.1181  -26.8910   27.9215 C   0  0  0  0  0  0  0  0  0  0  0  0
  -11.3653  -26.8776   29.0224 N   0  0  0  0  0  0  0  0  0  0  0  0
  -15.3102  -22.6273   32.8201 N   0  0  0  0  0  0  0  0  0  0  0  0
  -14.9589  -21.6462   31.3072 H   0  0  0  0  0  0  0  0  0  0  0  0
  -14.8975  -21.5012   31.4903 H   0  0  0  0  0  0  0  0  0  0  0  0
  -18.6970  -22.8293   33.1297 H   0  0  0  0  0  0  0  0  0  0  0  0
  -18.0297  -24.7495   34.5954 H   0  0  0  0  0  0  0  0  0  0  0  0
  -15.6292  -25.2823   34.8764 H   0  0  0  0  0  0  0  0  0  0  0  0
  -13.3895  -24.8198   34.2149 H   0  0  0  0  0  0  0  0  0  0  0  0
  -11.8533  -25.0895   34.0886 H   0  0  0  0  0  0  0  0  0  0  0  0
   -9.6452  -23.9622   32.6133 H   0  0  0  0  0  0  0  0  0  0  0  0
   -9.6531  -25.4379   33.6022 H   0  0  0  0  0  0  0  0  0  0  0  0
   -9.1944  -26.2129   31.4550 H   0  0  0  0  0  0  0  0  0  0  0  0
  -10.8724  -26.6047   31.7014 H   0  0  0  0  0  0  0  0  0  0  0  0
   -9.5436  -24.9159   29.7232 H   0  0  0  0  0  0  0  0  0  0  0  0
  -10.8394  -23.9896   30.4972 H   0  0  0  0  0  0  0  0  0  0  0  0
  -12.3256  -23.8112   28.5308 H   0  0  0  0  0  0  0  0  0  0  0  0
  -12.2839  -27.8051   27.3667 H   0  0  0  0  0  0  0  0  0  0  0  0
  1  2  1  0
  2  3  2  0
  2  4  1  0
  4  5  2  0
  5  6  1  0
  6  7  2  0
  7  8  1  0
  8  9  1  0
  9 10  1  0
 10 11  2  0
 10 12  1  0
 12 13  1  0
 13 14  1  0
 14 15  1  0
 15 16  1  0
 16 17  1  0
 17 18  2  0
 18 19  1  0
 19 20  2  0
  8 21  2  0
 21  4  1  0
 20 16  1  0
  1 22  1  0
  1 23  1  0
  5 24  1  0
  6 25  1  0
  7 26  1  0
  9 27  1  0
 12 28  1  0
 13 29  1  0
 13 30  1  0
 14 31  1  0
 14 32  1  0
 15 33  1  0
 15 34  1  0
 17 35  1  0
 19 36  1  0
M  END
>  <Energy>  (1355) 
117.94723018743687

>  <compound_id>  (1355) 
69280

>  <target_id>  (1355) 
1

>  <reference_id>  (1355) 
82

>  <inspiration_ids>  (1355) 
[82, 54]

>  <energy_score>  (1355) 
144.75952276695395

>  <distance_score>  (1355) 
5.702437612616247

>  <path>  (1355) 
/opt/xchem-fragalysis-2/maxwin/BulkDock/SCRATCH/511022/C69280-P82/C69280-P82.minimised.mol

>  <scratch_subdir>  (1355) 
/opt/xchem-fragalysis-2/maxwin/BulkDock/SCRATCH/511022/C69280-P82

>  <fragmenstein_runtime>  (1355) 
14.564599514007568

>  <fragmenstein_outcome>  (1355) 
too moved

>  <fragmenstein_mode>  (1355) 
expansion

>  <fragmenstein_error>  (1355) 


$$$$
C69280-P54
     RDKit          3D

 36 37  0  0  0  0  0  0  0  0999 V2000
  -13.8351  -22.9089   25.3633 N   0  0  0  0  0  0  0  0  0  0  0  0
  -13.8736  -24.3174   25.6662 C   0  0  0  0  0  0  0  0  0  0  0  0
  -14.5140  -25.2041   25.1758 O   0  0  0  0  0  0  0  0  0  0  0  0
  -12.9163  -24.7155   26.7531 C   0  0  0  0  0  0  0  0  0  0  0  0
  -12.6697  -26.0555   27.0258 C   0  0  0  0  0  0  0  0  0  0  0  0
  -11.8621  -26.3660   28.1112 C   0  0  0  0  0  0  0  0  0  0  0  0
  -11.3696  -25.3318   28.8979 C   0  0  0  0  0  0  0  0  0  0  0  0
  -11.6557  -24.0217   28.5352 C   0  0  0  0  0  0  0  0  0  0  0  0
  -11.3347  -23.0239   29.4250 N   0  0  0  0  0  0  0  0  0  0  0  0
  -11.5535  -21.5663   29.3569 C   0  0  0  0  0  0  0  0  0  0  0  0
  -11.9815  -20.9095   28.4939 O   0  0  0  0  0  0  0  0  0  0  0  0
  -11.1707  -21.2014   30.7170 N   0  0  0  0  0  0  0  0  0  0  0  0
  -11.2932  -19.9665   31.4216 C   0  0  0  0  0  0  0  0  0  0  0  0
  -10.6186  -20.0021   32.7856 C   0  0  0  0  0  0  0  0  0  0  0  0
  -10.9825  -21.2119   33.6208 C   0  0  0  0  0  0  0  0  0  0  0  0
  -10.1454  -22.3748   33.4154 N   0  0  0  0  0  0  0  0  0  0  0  0
   -9.3385  -22.9436   34.3442 C   0  0  0  0  0  0  0  0  0  0  0  0
   -8.8007  -24.0362   33.8665 N   0  0  0  0  0  0  0  0  0  0  0  0
   -9.2483  -24.0572   32.5832 C   0  0  0  0  0  0  0  0  0  0  0  0
  -10.1117  -23.0879   32.2591 N   0  0  0  0  0  0  0  0  0  0  0  0
  -12.3780  -23.6872   27.4496 N   0  0  0  0  0  0  0  0  0  0  0  0
  -13.0655  -22.4591   25.9224 H   0  0  0  0  0  0  0  0  0  0  0  0
  -13.2411  -22.4200   26.0816 H   0  0  0  0  0  0  0  0  0  0  0  0
  -13.1157  -26.8370   26.4173 H   0  0  0  0  0  0  0  0  0  0  0  0
  -11.6593  -27.4030   28.3646 H   0  0  0  0  0  0  0  0  0  0  0  0
  -10.8024  -25.5516   29.7947 H   0  0  0  0  0  0  0  0  0  0  0  0
  -11.0265  -23.2705   30.3496 H   0  0  0  0  0  0  0  0  0  0  0  0
  -10.7602  -22.0006   31.1715 H   0  0  0  0  0  0  0  0  0  0  0  0
  -10.9005  -19.1650   30.7931 H   0  0  0  0  0  0  0  0  0  0  0  0
  -12.3666  -19.7887   31.5434 H   0  0  0  0  0  0  0  0  0  0  0  0
  -10.9469  -19.0999   33.3143 H   0  0  0  0  0  0  0  0  0  0  0  0
   -9.5336  -19.9580   32.6966 H   0  0  0  0  0  0  0  0  0  0  0  0
  -12.0112  -21.4809   33.4308 H   0  0  0  0  0  0  0  0  0  0  0  0
  -10.9065  -20.9495   34.6798 H   0  0  0  0  0  0  0  0  0  0  0  0
   -9.2195  -22.5325   35.3300 H   0  0  0  0  0  0  0  0  0  0  0  0
   -8.9477  -24.8071   31.8667 H   0  0  0  0  0  0  0  0  0  0  0  0
  1  2  1  0
  2  3  2  0
  2  4  1  0
  4  5  2  0
  5  6  1  0
  6  7  2  0
  7  8  1  0
  8  9  1  0
  9 10  1  0
 10 11  2  0
 10 12  1  0
 12 13  1  0
 13 14  1  0
 14 15  1  0
 15 16  1  0
 16 17  1  0
 17 18  2  0
 18 19  1  0
 19 20  2  0
  8 21  2  0
 21  4  1  0
 20 16  1  0
  1 22  1  0
  1 23  1  0
  5 24  1  0
  6 25  1  0
  7 26  1  0
  9 27  1  0
 12 28  1  0
 13 29  1  0
 13 30  1  0
 14 31  1  0
 14 32  1  0
 15 33  1  0
 15 34  1  0
 17 35  1  0
 19 36  1  0
M  END
>  <Energy>  (1356) 
110.6300398133918

>  <compound_id>  (1356) 
69280

>  <target_id>  (1356) 
1

>  <reference_id>  (1356) 
54

>  <inspiration_ids>  (1356) 
[82, 54]

>  <energy_score>  (1356) 
137.44233239290784

>  <distance_score>  (1356) 
2.9664947004720514

>  <path>  (1356) 
/opt/xchem-fragalysis-2/maxwin/BulkDock/SCRATCH/511022/C69280-P54/C69280-P54.minimised.mol

>  <scratch_subdir>  (1356) 
/opt/xchem-fragalysis-2/maxwin/BulkDock/SCRATCH/511022/C69280-P54

>  <fragmenstein_runtime>  (1356) 
9.884654521942139

>  <fragmenstein_outcome>  (1356) 
too moved

>  <fragmenstein_mode>  (1356) 
expansion

>  <fragmenstein_error>  (1356) 


$$$$
C34592-P82
     RDKit          3D

 42 43  0  0  0  0  0  0  0  0999 V2000
  -13.0759  -28.9009   26.9703 C   0  0  0  0  0  0  0  0  0  0  0  0
  -11.9255  -28.3706   26.1331 C   0  0  0  0  0  0  0  0  0  0  0  0
  -11.4385  -26.9400   26.3915 C   0  0  0  0  0  0  0  0  0  0  0  0
  -10.9338  -26.6261   27.7065 N   0  0  0  0  0  0  0  0  0  0  0  0
  -11.4091  -27.0286   29.0399 C   0  0  0  0  0  0  0  0  0  0  0  0
  -12.2626  -27.7635   29.3417 O   0  0  0  0  0  0  0  0  0  0  0  0
  -10.5638  -26.1602   29.8772 N   0  0  0  0  0  0  0  0  0  0  0  0
  -10.6047  -25.9010   31.2274 C   0  0  0  0  0  0  0  0  0  0  0  0
   -9.5922  -25.2517   31.8485 C   0  0  0  0  0  0  0  0  0  0  0  0
   -9.9436  -24.0786   32.4867 C   0  0  0  0  0  0  0  0  0  0  0  0
  -11.2574  -23.6245   32.4548 C   0  0  0  0  0  0  0  0  0  0  0  0
  -11.5170  -22.2497   32.2199 N   0  0  0  0  0  0  0  0  0  0  0  0
  -12.0398  -22.1492   30.8349 C   0  0  0  0  0  0  0  0  0  0  0  0
  -12.4023  -21.7166   33.2505 C   0  0  0  0  0  0  0  0  0  0  0  0
  -12.2040  -24.5732   32.2219 C   0  0  0  0  0  0  0  0  0  0  0  0
  -11.8613  -25.7000   31.6126 N   0  0  0  0  0  0  0  0  0  0  0  0
  -12.3990  -25.8473   25.9637 C   0  0  0  0  0  0  0  0  0  0  0  0
  -13.6446  -26.1715   25.5625 N   0  0  0  0  0  0  0  0  0  0  0  0
  -14.3949  -25.1777   25.0610 C   0  0  0  0  0  0  0  0  0  0  0  0
  -13.9427  -23.8926   24.9366 C   0  0  0  0  0  0  0  0  0  0  0  0
  -12.6761  -23.6539   25.4116 C   0  0  0  0  0  0  0  0  0  0  0  0
  -11.8781  -24.6038   25.9191 N   0  0  0  0  0  0  0  0  0  0  0  0
  -13.6408  -29.6347   26.3831 H   0  0  0  0  0  0  0  0  0  0  0  0
  -12.7139  -29.4475   27.8437 H   0  0  0  0  0  0  0  0  0  0  0  0
  -13.7806  -28.1263   27.2759 H   0  0  0  0  0  0  0  0  0  0  0  0
  -11.0935  -29.0784   26.2100 H   0  0  0  0  0  0  0  0  0  0  0  0
  -12.2353  -28.4290   25.0795 H   0  0  0  0  0  0  0  0  0  0  0  0
  -10.5782  -26.8343   25.7295 H   0  0  0  0  0  0  0  0  0  0  0  0
  -10.2389  -25.9143   27.8051 H   0  0  0  0  0  0  0  0  0  0  0  0
   -9.8767  -25.7230   29.3077 H   0  0  0  0  0  0  0  0  0  0  0  0
   -8.5638  -25.5314   31.7094 H   0  0  0  0  0  0  0  0  0  0  0  0
   -9.1529  -23.4258   32.8121 H   0  0  0  0  0  0  0  0  0  0  0  0
  -11.7016  -21.2106   30.4025 H   0  0  0  0  0  0  0  0  0  0  0  0
  -13.1332  -22.1949   30.8060 H   0  0  0  0  0  0  0  0  0  0  0  0
  -11.6462  -22.9193   30.1573 H   0  0  0  0  0  0  0  0  0  0  0  0
  -13.4535  -21.9807   33.0915 H   0  0  0  0  0  0  0  0  0  0  0  0
  -12.0959  -22.0681   34.2338 H   0  0  0  0  0  0  0  0  0  0  0  0
  -12.3068  -20.6308   33.2834 H   0  0  0  0  0  0  0  0  0  0  0  0
  -13.2659  -24.3688   32.2736 H   0  0  0  0  0  0  0  0  0  0  0  0
  -15.3934  -25.4554   24.7371 H   0  0  0  0  0  0  0  0  0  0  0  0
  -14.5424  -23.1081   24.4944 H   0  0  0  0  0  0  0  0  0  0  0  0
  -12.2514  -22.6599   25.3595 H   0  0  0  0  0  0  0  0  0  0  0  0
  1  2  1  0
  2  3  1  0
  3  4  1  0
  4  5  1  0
  5  6  2  0
  5  7  1  0
  7  8  1  0
  8  9  2  0
  9 10  1  0
 10 11  2  0
 11 12  1  0
 12 13  1  0
 12 14  1  0
 11 15  1  0
 15 16  2  0
  3 17  1  0
 17 18  2  0
 18 19  1  0
 19 20  2  0
 20 21  1  0
 21 22  2  0
 16  8  1  0
 22 17  1  0
  1 23  1  0
  1 24  1  0
  1 25  1  0
  2 26  1  0
  2 27  1  0
  3 28  1  0
  4 29  1  0
  7 30  1  0
  9 31  1  0
 10 32  1  0
 13 33  1  0
 13 34  1  0
 13 35  1  0
 14 36  1  0
 14 37  1  0
 14 38  1  0
 15 39  1  0
 19 40  1  0
 20 41  1  0
 21 42  1  0
M  END
>  <Energy>  (1357) 
38.122124280804869

>  <compound_id>  (1357) 
34592

>  <target_id>  (1357) 
1

>  <reference_id>  (1357) 
82

>  <inspiration_ids>  (1357) 
[82, 54]

>  <energy_score>  (1357) 
36.247675772185545

>  <distance_score>  (1357) 
4.916448300260477

>  <path>  (1357) 
/opt/xchem-fragalysis-2/maxwin/BulkDock/SCRATCH/511022/C34592-P82/C34592-P82.minimised.mol

>  <scratch_subdir>  (1357) 
/opt/xchem-fragalysis-2/maxwin/BulkDock/SCRATCH/511022/C34592-P82

>  <fragmenstein_runtime>  (1357) 
12.282546520233154

>  <fragmenstein_outcome>  (1357) 
too moved

>  <fragmenstein_mode>  (1357) 
expansion

>  <fragmenstein_error>  (1357) 


$$$$
C34592-P54
     RDKit          3D

 42 43  0  0  0  0  0  0  0  0999 V2000
   -9.4308  -22.7403   33.6632 C   0  0  0  0  0  0  0  0  0  0  0  0
   -8.6267  -23.3226   32.5160 C   0  0  0  0  0  0  0  0  0  0  0  0
   -9.3352  -23.5475   31.1654 C   0  0  0  0  0  0  0  0  0  0  0  0
  -10.1880  -24.7011   31.1767 N   0  0  0  0  0  0  0  0  0  0  0  0
  -10.8317  -25.4307   30.0713 C   0  0  0  0  0  0  0  0  0  0  0  0
  -10.7344  -25.2871   28.9151 O   0  0  0  0  0  0  0  0  0  0  0  0
  -11.7098  -26.3295   30.8507 N   0  0  0  0  0  0  0  0  0  0  0  0
  -12.7128  -27.1722   30.4450 C   0  0  0  0  0  0  0  0  0  0  0  0
  -13.6955  -27.4629   31.3735 C   0  0  0  0  0  0  0  0  0  0  0  0
  -14.9894  -27.5873   30.8845 C   0  0  0  0  0  0  0  0  0  0  0  0
  -15.2321  -27.4960   29.5099 C   0  0  0  0  0  0  0  0  0  0  0  0
  -16.5543  -27.3153   29.0647 N   0  0  0  0  0  0  0  0  0  0  0  0
  -16.7872  -25.8759   28.8421 C   0  0  0  0  0  0  0  0  0  0  0  0
  -16.9190  -28.1480   27.9151 C   0  0  0  0  0  0  0  0  0  0  0  0
  -14.1233  -27.4371   28.6744 C   0  0  0  0  0  0  0  0  0  0  0  0
  -12.8713  -27.2870   29.1213 N   0  0  0  0  0  0  0  0  0  0  0  0
  -10.1406  -22.3931   30.5979 C   0  0  0  0  0  0  0  0  0  0  0  0
  -10.1459  -22.2430   29.2546 N   0  0  0  0  0  0  0  0  0  0  0  0
  -10.8187  -21.1940   28.7678 C   0  0  0  0  0  0  0  0  0  0  0  0
  -11.4443  -20.2831   29.5733 C   0  0  0  0  0  0  0  0  0  0  0  0
  -11.4767  -20.5734   30.9127 C   0  0  0  0  0  0  0  0  0  0  0  0
  -10.8527  -21.6318   31.4424 N   0  0  0  0  0  0  0  0  0  0  0  0
   -8.9287  -22.9340   34.6147 H   0  0  0  0  0  0  0  0  0  0  0  0
   -9.5222  -21.6539   33.5731 H   0  0  0  0  0  0  0  0  0  0  0  0
  -10.4264  -23.1690   33.7125 H   0  0  0  0  0  0  0  0  0  0  0  0
   -7.7755  -22.6534   32.3635 H   0  0  0  0  0  0  0  0  0  0  0  0
   -8.2191  -24.2829   32.8575 H   0  0  0  0  0  0  0  0  0  0  0  0
   -8.5685  -23.7714   30.4151 H   0  0  0  0  0  0  0  0  0  0  0  0
  -10.5530  -25.0246   32.0384 H   0  0  0  0  0  0  0  0  0  0  0  0
  -11.4797  -26.2583   31.8149 H   0  0  0  0  0  0  0  0  0  0  0  0
  -13.5275  -27.4026   32.4401 H   0  0  0  0  0  0  0  0  0  0  0  0
  -15.8288  -27.6656   31.5706 H   0  0  0  0  0  0  0  0  0  0  0  0
  -17.8377  -25.7113   28.5776 H   0  0  0  0  0  0  0  0  0  0  0  0
  -16.5936  -25.3045   29.7571 H   0  0  0  0  0  0  0  0  0  0  0  0
  -16.1675  -25.4787   28.0293 H   0  0  0  0  0  0  0  0  0  0  0  0
  -16.4229  -27.8264   26.9925 H   0  0  0  0  0  0  0  0  0  0  0  0
  -16.6790  -29.2009   28.1024 H   0  0  0  0  0  0  0  0  0  0  0  0
  -18.0005  -28.0875   27.7506 H   0  0  0  0  0  0  0  0  0  0  0  0
  -14.2180  -27.4019   27.5947 H   0  0  0  0  0  0  0  0  0  0  0  0
  -10.8051  -21.0781   27.6906 H   0  0  0  0  0  0  0  0  0  0  0  0
  -11.8543  -19.3709   29.1773 H   0  0  0  0  0  0  0  0  0  0  0  0
  -11.9805  -19.9277   31.6254 H   0  0  0  0  0  0  0  0  0  0  0  0
  1  2  1  0
  2  3  1  0
  3  4  1  0
  4  5  1  0
  5  6  2  0
  5  7  1  0
  7  8  1  0
  8  9  2  0
  9 10  1  0
 10 11  2  0
 11 12  1  0
 12 13  1  0
 12 14  1  0
 11 15  1  0
 15 16  2  0
  3 17  1  0
 17 18  2  0
 18 19  1  0
 19 20  2  0
 20 21  1  0
 21 22  2  0
 16  8  1  0
 22 17  1  0
  1 23  1  0
  1 24  1  0
  1 25  1  0
  2 26  1  0
  2 27  1  0
  3 28  1  0
  4 29  1  0
  7 30  1  0
  9 31  1  0
 10 32  1  0
 13 33  1  0
 13 34  1  0
 13 35  1  0
 14 36  1  0
 14 37  1  0
 14 38  1  0
 15 39  1  0
 19 40  1  0
 20 41  1  0
 21 42  1  0
M  END
>  <Energy>  (1358) 
4.6397338910566912

>  <compound_id>  (1358) 
34592

>  <target_id>  (1358) 
1

>  <reference_id>  (1358) 
54

>  <inspiration_ids>  (1358) 
[82, 54]

>  <energy_score>  (1358) 
2.7652853824381722

>  <distance_score>  (1358) 
4.280166240680531

>  <path>  (1358) 
/opt/xchem-fragalysis-2/maxwin/BulkDock/SCRATCH/511022/C34592-P54/C34592-P54.minimised.mol

>  <scratch_subdir>  (1358) 
/opt/xchem-fragalysis-2/maxwin/BulkDock/SCRATCH/511022/C34592-P54

>  <fragmenstein_runtime>  (1358) 
9.36139965057373

>  <fragmenstein_outcome>  (1358) 
too moved

>  <fragmenstein_mode>  (1358) 
expansion

>  <fragmenstein_error>  (1358) 


$$$$
C69281-P82
     RDKit          3D

 45 46  0  0  0  0  0  0  0  0999 V2000
  -12.7658  -22.6997   24.1382 C   0  0  0  0  0  0  0  0  0  0  0  0
  -12.2884  -23.6148   25.2848 C   0  0  0  0  0  0  0  0  0  0  0  0
  -10.9416  -24.2485   24.9545 C   0  0  0  0  0  0  0  0  0  0  0  0
  -12.1152  -22.7721   26.5679 C   0  0  0  0  0  0  0  0  0  0  0  0
  -13.2436  -24.7230   25.3891 O   0  0  0  0  0  0  0  0  0  0  0  0
  -12.8556  -25.6018   26.3624 C   0  0  0  0  0  0  0  0  0  0  0  0
  -12.8407  -26.9595   26.1837 C   0  0  0  0  0  0  0  0  0  0  0  0
  -12.3546  -27.7225   27.2439 C   0  0  0  0  0  0  0  0  0  0  0  0
  -11.9768  -27.0967   28.4422 C   0  0  0  0  0  0  0  0  0  0  0  0
  -12.0913  -25.7313   28.5332 C   0  0  0  0  0  0  0  0  0  0  0  0
  -12.3940  -25.0860   29.7000 N   0  0  0  0  0  0  0  0  0  0  0  0
  -12.3124  -23.6430   30.0626 C   0  0  0  0  0  0  0  0  0  0  0  0
  -11.8913  -22.7314   29.4571 O   0  0  0  0  0  0  0  0  0  0  0  0
  -13.0002  -23.6835   31.3522 N   0  0  0  0  0  0  0  0  0  0  0  0
  -13.2762  -22.6574   32.2873 C   0  0  0  0  0  0  0  0  0  0  0  0
  -12.1114  -22.6469   33.2404 C   0  0  0  0  0  0  0  0  0  0  0  0
  -11.8468  -24.0807   33.7179 C   0  0  0  0  0  0  0  0  0  0  0  0
  -10.8992  -24.8014   32.8939 N   0  0  0  0  0  0  0  0  0  0  0  0
   -9.6442  -24.4445   32.5529 C   0  0  0  0  0  0  0  0  0  0  0  0
   -9.1292  -25.3078   31.7206 N   0  0  0  0  0  0  0  0  0  0  0  0
  -10.1176  -26.2149   31.5922 C   0  0  0  0  0  0  0  0  0  0  0  0
  -11.2320  -25.9335   32.2696 N   0  0  0  0  0  0  0  0  0  0  0  0
  -12.4769  -25.0335   27.4931 N   0  0  0  0  0  0  0  0  0  0  0  0
  -12.4371  -23.0238   23.1576 H   0  0  0  0  0  0  0  0  0  0  0  0
  -12.3545  -21.6876   24.2128 H   0  0  0  0  0  0  0  0  0  0  0  0
  -13.8588  -22.6548   24.0947 H   0  0  0  0  0  0  0  0  0  0  0  0
  -11.0335  -25.2987   24.6877 H   0  0  0  0  0  0  0  0  0  0  0  0
  -10.3101  -24.2698   25.8441 H   0  0  0  0  0  0  0  0  0  0  0  0
  -10.4205  -23.7303   24.1502 H   0  0  0  0  0  0  0  0  0  0  0  0
  -11.8455  -21.7369   26.3790 H   0  0  0  0  0  0  0  0  0  0  0  0
  -11.2856  -23.1183   27.1923 H   0  0  0  0  0  0  0  0  0  0  0  0
  -13.0124  -22.7964   27.1807 H   0  0  0  0  0  0  0  0  0  0  0  0
  -13.1591  -27.4075   25.2523 H   0  0  0  0  0  0  0  0  0  0  0  0
  -12.3082  -28.8050   27.1563 H   0  0  0  0  0  0  0  0  0  0  0  0
  -11.7085  -27.6751   29.3140 H   0  0  0  0  0  0  0  0  0  0  0  0
  -12.7335  -25.6049   30.4825 H   0  0  0  0  0  0  0  0  0  0  0  0
  -13.2985  -24.6251   31.5384 H   0  0  0  0  0  0  0  0  0  0  0  0
  -14.2172  -22.8918   32.7936 H   0  0  0  0  0  0  0  0  0  0  0  0
  -13.3722  -21.7063   31.7679 H   0  0  0  0  0  0  0  0  0  0  0  0
  -12.3367  -21.9716   34.0667 H   0  0  0  0  0  0  0  0  0  0  0  0
  -11.2478  -22.2300   32.7143 H   0  0  0  0  0  0  0  0  0  0  0  0
  -12.7734  -24.6657   33.7586 H   0  0  0  0  0  0  0  0  0  0  0  0
  -11.4634  -24.0865   34.7272 H   0  0  0  0  0  0  0  0  0  0  0  0
   -9.1583  -23.5549   32.8994 H   0  0  0  0  0  0  0  0  0  0  0  0
  -10.0174  -27.1136   31.0002 H   0  0  0  0  0  0  0  0  0  0  0  0
  1  2  1  0
  2  3  1  0
  2  4  1  0
  2  5  1  0
  5  6  1  0
  6  7  2  0
  7  8  1  0
  8  9  2  0
  9 10  1  0
 10 11  1  0
 11 12  1  0
 12 13  2  0
 12 14  1  0
 14 15  1  0
 15 16  1  0
 16 17  1  0
 17 18  1  0
 18 19  1  0
 19 20  2  0
 20 21  1  0
 21 22  2  0
 10 23  2  0
 23  6  1  0
 22 18  1  0
  1 24  1  0
  1 25  1  0
  1 26  1  0
  3 27  1  0
  3 28  1  0
  3 29  1  0
  4 30  1  0
  4 31  1  0
  4 32  1  0
  7 33  1  0
  8 34  1  0
  9 35  1  0
 11 36  1  0
 14 37  1  0
 15 38  1  0
 15 39  1  0
 16 40  1  0
 16 41  1  0
 17 42  1  0
 17 43  1  0
 19 44  1  0
 21 45  1  0
M  END
>  <Energy>  (1359) 
-15.624467823341369

>  <compound_id>  (1359) 
69281

>  <target_id>  (1359) 
1

>  <reference_id>  (1359) 
82

>  <inspiration_ids>  (1359) 
[82, 54]

>  <energy_score>  (1359) 
9.596743976892753

>  <distance_score>  (1359) 
3.219728095233995

>  <path>  (1359) 
/opt/xchem-fragalysis-2/maxwin/BulkDock/SCRATCH/511022/C69281-P82/C69281-P82.minimised.mol

>  <scratch_subdir>  (1359) 
/opt/xchem-fragalysis-2/maxwin/BulkDock/SCRATCH/511022/C69281-P82

>  <fragmenstein_runtime>  (1359) 
15.752261400222778

>  <fragmenstein_outcome>  (1359) 
too moved

>  <fragmenstein_mode>  (1359) 
expansion

>  <fragmenstein_error>  (1359) 


$$$$
C69281-P54
     RDKit          3D

 45 46  0  0  0  0  0  0  0  0999 V2000
  -11.8114  -21.7429   24.2692 C   0  0  0  0  0  0  0  0  0  0  0  0
  -11.6622  -22.4439   25.6526 C   0  0  0  0  0  0  0  0  0  0  0  0
  -10.4601  -23.4104   25.6517 C   0  0  0  0  0  0  0  0  0  0  0  0
  -11.4621  -21.4671   26.8691 C   0  0  0  0  0  0  0  0  0  0  0  0
  -12.8860  -23.2088   25.6963 O   0  0  0  0  0  0  0  0  0  0  0  0
  -12.9673  -24.0287   26.7729 C   0  0  0  0  0  0  0  0  0  0  0  0
  -13.8789  -25.0482   26.7424 C   0  0  0  0  0  0  0  0  0  0  0  0
  -14.1128  -25.7006   27.9296 C   0  0  0  0  0  0  0  0  0  0  0  0
  -13.4986  -25.2228   29.0766 C   0  0  0  0  0  0  0  0  0  0  0  0
  -12.5763  -24.1949   28.9816 C   0  0  0  0  0  0  0  0  0  0  0  0
  -12.0519  -23.5642   30.0770 N   0  0  0  0  0  0  0  0  0  0  0  0
  -10.6861  -22.8695   30.2732 C   0  0  0  0  0  0  0  0  0  0  0  0
   -9.8503  -22.6653   29.5277 O   0  0  0  0  0  0  0  0  0  0  0  0
  -10.7458  -22.6251   31.8028 N   0  0  0  0  0  0  0  0  0  0  0  0
   -9.7437  -22.1698   32.7015 C   0  0  0  0  0  0  0  0  0  0  0  0
   -9.1819  -23.3912   33.4343 C   0  0  0  0  0  0  0  0  0  0  0  0
   -9.0131  -24.6401   32.5490 C   0  0  0  0  0  0  0  0  0  0  0  0
  -10.1604  -25.5321   32.4046 N   0  0  0  0  0  0  0  0  0  0  0  0
  -10.4762  -26.6425   33.1517 C   0  0  0  0  0  0  0  0  0  0  0  0
  -11.5323  -27.2563   32.6766 N   0  0  0  0  0  0  0  0  0  0  0  0
  -11.6629  -26.6747   31.4659 C   0  0  0  0  0  0  0  0  0  0  0  0
  -10.9010  -25.5983   31.2750 N   0  0  0  0  0  0  0  0  0  0  0  0
  -12.2386  -23.6941   27.8312 N   0  0  0  0  0  0  0  0  0  0  0  0
  -12.0632  -20.6840   24.3600 H   0  0  0  0  0  0  0  0  0  0  0  0
  -10.9016  -21.7907   23.6622 H   0  0  0  0  0  0  0  0  0  0  0  0
  -12.6098  -22.1907   23.6667 H   0  0  0  0  0  0  0  0  0  0  0  0
   -9.8074  -23.2185   24.8024 H   0  0  0  0  0  0  0  0  0  0  0  0
  -10.7220  -24.4713   25.6521 H   0  0  0  0  0  0  0  0  0  0  0  0
   -9.8555  -23.2924   26.5555 H   0  0  0  0  0  0  0  0  0  0  0  0
  -11.3402  -20.4273   26.5834 H   0  0  0  0  0  0  0  0  0  0  0  0
  -10.5575  -21.6836   27.4407 H   0  0  0  0  0  0  0  0  0  0  0  0
  -12.2608  -21.4753   27.6043 H   0  0  0  0  0  0  0  0  0  0  0  0
  -14.4167  -25.2987   25.8388 H   0  0  0  0  0  0  0  0  0  0  0  0
  -14.8358  -26.5091   27.9816 H   0  0  0  0  0  0  0  0  0  0  0  0
  -13.7861  -25.6819   30.0057 H   0  0  0  0  0  0  0  0  0  0  0  0
  -12.5124  -23.6508   30.9551 H   0  0  0  0  0  0  0  0  0  0  0  0
  -11.6669  -22.8436   32.1451 H   0  0  0  0  0  0  0  0  0  0  0  0
   -8.9460  -21.7047   32.1257 H   0  0  0  0  0  0  0  0  0  0  0  0
  -10.1720  -21.4427   33.3960 H   0  0  0  0  0  0  0  0  0  0  0  0
   -8.2044  -23.1049   33.8398 H   0  0  0  0  0  0  0  0  0  0  0  0
   -9.8108  -23.6284   34.2929 H   0  0  0  0  0  0  0  0  0  0  0  0
   -8.2215  -25.2422   33.0058 H   0  0  0  0  0  0  0  0  0  0  0  0
   -8.6924  -24.3718   31.5404 H   0  0  0  0  0  0  0  0  0  0  0  0
   -9.8147  -27.0512   33.9054 H   0  0  0  0  0  0  0  0  0  0  0  0
  -12.3141  -27.0696   30.7003 H   0  0  0  0  0  0  0  0  0  0  0  0
  1  2  1  0
  2  3  1  0
  2  4  1  0
  2  5  1  0
  5  6  1  0
  6  7  2  0
  7  8  1  0
  8  9  2  0
  9 10  1  0
 10 11  1  0
 11 12  1  0
 12 13  2  0
 12 14  1  0
 14 15  1  0
 15 16  1  0
 16 17  1  0
 17 18  1  0
 18 19  1  0
 19 20  2  0
 20 21  1  0
 21 22  2  0
 10 23  2  0
 23  6  1  0
 22 18  1  0
  1 24  1  0
  1 25  1  0
  1 26  1  0
  3 27  1  0
  3 28  1  0
  3 29  1  0
  4 30  1  0
  4 31  1  0
  4 32  1  0
  7 33  1  0
  8 34  1  0
  9 35  1  0
 11 36  1  0
 14 37  1  0
 15 38  1  0
 15 39  1  0
 16 40  1  0
 16 41  1  0
 17 42  1  0
 17 43  1  0
 19 44  1  0
 21 45  1  0
M  END
>  <Energy>  (1360) 
-0.73645191605008486

>  <compound_id>  (1360) 
69281

>  <target_id>  (1360) 
1

>  <reference_id>  (1360) 
54

>  <inspiration_ids>  (1360) 
[82, 54]

>  <energy_score>  (1360) 
44.54650385336453

>  <distance_score>  (1360) 
2.4031519269768773

>  <path>  (1360) 
/opt/xchem-fragalysis-2/maxwin/BulkDock/SCRATCH/511022/C69281-P54/C69281-P54.minimised.mol

>  <scratch_subdir>  (1360) 
/opt/xchem-fragalysis-2/maxwin/BulkDock/SCRATCH/511022/C69281-P54

>  <fragmenstein_runtime>  (1360) 
11.227474689483643

>  <fragmenstein_outcome>  (1360) 
too moved

>  <fragmenstein_mode>  (1360) 
expansion

>  <fragmenstein_error>  (1360) 


$$$$
C34594-P82
     RDKit          3D

 41 42  0  0  0  0  0  0  0  0999 V2000
   -9.3300  -25.3253   31.5702 C   0  0  0  0  0  0  0  0  0  0  0  0
  -10.4393  -26.2823   31.2403 C   0  0  0  0  0  0  0  0  0  0  0  0
  -11.4430  -25.7566   30.2177 C   0  0  0  0  0  0  0  0  0  0  0  0
  -11.4242  -26.3552   28.9046 N   0  0  0  0  0  0  0  0  0  0  0  0
  -12.0410  -27.5762   28.4039 C   0  0  0  0  0  0  0  0  0  0  0  0
  -12.6364  -28.4092   28.9705 O   0  0  0  0  0  0  0  0  0  0  0  0
  -11.7810  -27.4055   26.9600 N   0  0  0  0  0  0  0  0  0  0  0  0
  -12.0813  -28.2115   25.8963 C   0  0  0  0  0  0  0  0  0  0  0  0
  -11.1003  -28.2073   24.9635 N   0  0  0  0  0  0  0  0  0  0  0  0
  -11.1722  -29.1519   24.0101 C   0  0  0  0  0  0  0  0  0  0  0  0
  -12.2267  -30.0300   23.8873 C   0  0  0  0  0  0  0  0  0  0  0  0
  -13.2786  -29.9268   24.7868 C   0  0  0  0  0  0  0  0  0  0  0  0
  -13.2368  -28.9873   25.8200 C   0  0  0  0  0  0  0  0  0  0  0  0
  -14.4733  -28.8258   26.6686 C   0  0  0  0  0  0  0  0  0  0  0  0
  -14.9808  -27.4795   26.6704 O   0  0  0  0  0  0  0  0  0  0  0  0
  -15.6265  -27.1598   25.4371 C   0  0  0  0  0  0  0  0  0  0  0  0
  -11.4757  -24.2742   29.9864 C   0  0  0  0  0  0  0  0  0  0  0  0
  -11.8284  -23.4852   31.0081 N   0  0  0  0  0  0  0  0  0  0  0  0
  -12.0659  -22.2230   30.6832 C   0  0  0  0  0  0  0  0  0  0  0  0
  -11.9459  -21.7521   29.3976 C   0  0  0  0  0  0  0  0  0  0  0  0
  -11.5429  -22.6190   28.4241 C   0  0  0  0  0  0  0  0  0  0  0  0
  -11.2532  -23.8800   28.6984 N   0  0  0  0  0  0  0  0  0  0  0  0
   -9.6852  -24.4602   32.1365 H   0  0  0  0  0  0  0  0  0  0  0  0
   -8.9092  -25.0039   30.6224 H   0  0  0  0  0  0  0  0  0  0  0  0
   -8.5511  -25.7931   32.1724 H   0  0  0  0  0  0  0  0  0  0  0  0
  -10.9466  -26.4619   32.1931 H   0  0  0  0  0  0  0  0  0  0  0  0
  -10.0336  -27.2427   30.9096 H   0  0  0  0  0  0  0  0  0  0  0  0
  -12.4250  -25.9758   30.6011 H   0  0  0  0  0  0  0  0  0  0  0  0
  -11.0656  -25.8254   28.1326 H   0  0  0  0  0  0  0  0  0  0  0  0
  -11.1664  -26.6308   26.8247 H   0  0  0  0  0  0  0  0  0  0  0  0
  -10.3371  -29.1897   23.3158 H   0  0  0  0  0  0  0  0  0  0  0  0
  -12.2422  -30.7669   23.0909 H   0  0  0  0  0  0  0  0  0  0  0  0
  -14.1368  -30.5851   24.6664 H   0  0  0  0  0  0  0  0  0  0  0  0
  -15.2753  -29.4920   26.3227 H   0  0  0  0  0  0  0  0  0  0  0  0
  -14.2925  -29.1419   27.6941 H   0  0  0  0  0  0  0  0  0  0  0  0
  -16.4619  -27.8425   25.2538 H   0  0  0  0  0  0  0  0  0  0  0  0
  -14.9194  -27.1941   24.6032 H   0  0  0  0  0  0  0  0  0  0  0  0
  -16.0221  -26.1443   25.4993 H   0  0  0  0  0  0  0  0  0  0  0  0
  -12.3663  -21.5992   31.5151 H   0  0  0  0  0  0  0  0  0  0  0  0
  -12.1843  -20.7459   29.1310 H   0  0  0  0  0  0  0  0  0  0  0  0
  -11.4602  -22.3121   27.3888 H   0  0  0  0  0  0  0  0  0  0  0  0
  1  2  1  0
  2  3  1  0
  3  4  1  0
  4  5  1  0
  5  6  2  0
  5  7  1  0
  7  8  1  0
  8  9  2  0
  9 10  1  0
 10 11  2  0
 11 12  1  0
 12 13  2  0
 13 14  1  0
 14 15  1  0
 15 16  1  0
  3 17  1  0
 17 18  2  0
 18 19  1  0
 19 20  2  0
 20 21  1  0
 21 22  2  0
 13  8  1  0
 22 17  1  0
  1 23  1  0
  1 24  1  0
  1 25  1  0
  2 26  1  0
  2 27  1  0
  3 28  1  0
  4 29  1  0
  7 30  1  0
 10 31  1  0
 11 32  1  0
 12 33  1  0
 14 34  1  0
 14 35  1  0
 16 36  1  0
 16 37  1  0
 16 38  1  0
 19 39  1  0
 20 40  1  0
 21 41  1  0
M  END
>  <Energy>  (1361) 
-20.023203954517559

>  <compound_id>  (1361) 
34594

>  <target_id>  (1361) 
1

>  <reference_id>  (1361) 
82

>  <inspiration_ids>  (1361) 
[82, 54]

>  <energy_score>  (1361) 
-15.640717459594029

>  <distance_score>  (1361) 
6.2611050338506695

>  <path>  (1361) 
/opt/xchem-fragalysis-2/maxwin/BulkDock/SCRATCH/511022/C34594-P82/C34594-P82.minimised.mol

>  <scratch_subdir>  (1361) 
/opt/xchem-fragalysis-2/maxwin/BulkDock/SCRATCH/511022/C34594-P82

>  <fragmenstein_runtime>  (1361) 
6.636559247970581

>  <fragmenstein_outcome>  (1361) 
too moved

>  <fragmenstein_mode>  (1361) 
expansion

>  <fragmenstein_error>  (1361) 


$$$$
C34594-P54
     RDKit          3D

 41 42  0  0  0  0  0  0  0  0999 V2000
   -9.2214  -22.6872   33.1831 C   0  0  0  0  0  0  0  0  0  0  0  0
   -8.9880  -22.8896   31.6923 C   0  0  0  0  0  0  0  0  0  0  0  0
  -10.2208  -22.6516   30.8228 C   0  0  0  0  0  0  0  0  0  0  0  0
  -11.0577  -23.8052   30.8113 N   0  0  0  0  0  0  0  0  0  0  0  0
  -10.8864  -25.1453   31.4833 C   0  0  0  0  0  0  0  0  0  0  0  0
  -10.0979  -25.5042   32.2020 O   0  0  0  0  0  0  0  0  0  0  0  0
  -12.1437  -25.8335   30.9801 N   0  0  0  0  0  0  0  0  0  0  0  0
  -12.6926  -27.0161   31.3288 C   0  0  0  0  0  0  0  0  0  0  0  0
  -12.0525  -27.6516   32.3259 N   0  0  0  0  0  0  0  0  0  0  0  0
  -12.7421  -28.5697   32.9869 C   0  0  0  0  0  0  0  0  0  0  0  0
  -14.0587  -28.8444   32.6982 C   0  0  0  0  0  0  0  0  0  0  0  0
  -14.6782  -28.1911   31.6392 C   0  0  0  0  0  0  0  0  0  0  0  0
  -13.9806  -27.2599   30.8922 C   0  0  0  0  0  0  0  0  0  0  0  0
  -14.6637  -26.6415   29.6994 C   0  0  0  0  0  0  0  0  0  0  0  0
  -13.9749  -25.5002   29.1719 O   0  0  0  0  0  0  0  0  0  0  0  0
  -14.5021  -25.1400   27.8973 C   0  0  0  0  0  0  0  0  0  0  0  0
   -9.9634  -22.5879   29.3141 C   0  0  0  0  0  0  0  0  0  0  0  0
  -10.7623  -21.7284   28.6521 N   0  0  0  0  0  0  0  0  0  0  0  0
  -11.2065  -22.1425   27.4545 C   0  0  0  0  0  0  0  0  0  0  0  0
  -10.9537  -23.3780   26.9161 C   0  0  0  0  0  0  0  0  0  0  0  0
  -10.0907  -24.1603   27.6285 C   0  0  0  0  0  0  0  0  0  0  0  0
   -9.5272  -23.7602   28.7762 N   0  0  0  0  0  0  0  0  0  0  0  0
   -9.9977  -23.3432   33.5774 H   0  0  0  0  0  0  0  0  0  0  0  0
   -8.2986  -22.8838   33.7378 H   0  0  0  0  0  0  0  0  0  0  0  0
   -9.5200  -21.6535   33.3862 H   0  0  0  0  0  0  0  0  0  0  0  0
   -8.5871  -23.8881   31.5234 H   0  0  0  0  0  0  0  0  0  0  0  0
   -8.1915  -22.2244   31.3954 H   0  0  0  0  0  0  0  0  0  0  0  0
  -10.8019  -21.7837   31.1507 H   0  0  0  0  0  0  0  0  0  0  0  0
  -11.8229  -23.8484   30.1663 H   0  0  0  0  0  0  0  0  0  0  0  0
  -12.5849  -25.2612   30.2794 H   0  0  0  0  0  0  0  0  0  0  0  0
  -12.2131  -29.0836   33.7828 H   0  0  0  0  0  0  0  0  0  0  0  0
  -14.5942  -29.5945   33.2718 H   0  0  0  0  0  0  0  0  0  0  0  0
  -15.7074  -28.4455   31.3950 H   0  0  0  0  0  0  0  0  0  0  0  0
  -14.7384  -27.4114   28.9212 H   0  0  0  0  0  0  0  0  0  0  0  0
  -15.6732  -26.3207   29.9839 H   0  0  0  0  0  0  0  0  0  0  0  0
  -14.0155  -24.2176   27.5732 H   0  0  0  0  0  0  0  0  0  0  0  0
  -14.2834  -25.9225   27.1643 H   0  0  0  0  0  0  0  0  0  0  0  0
  -15.5809  -24.9719   27.9560 H   0  0  0  0  0  0  0  0  0  0  0  0
  -11.8026  -21.4261   26.9111 H   0  0  0  0  0  0  0  0  0  0  0  0
  -11.3653  -23.6792   25.9680 H   0  0  0  0  0  0  0  0  0  0  0  0
   -9.7967  -25.1479   27.2871 H   0  0  0  0  0  0  0  0  0  0  0  0
  1  2  1  0
  2  3  1  0
  3  4  1  0
  4  5  1  0
  5  6  2  0
  5  7  1  0
  7  8  1  0
  8  9  2  0
  9 10  1  0
 10 11  2  0
 11 12  1  0
 12 13  2  0
 13 14  1  0
 14 15  1  0
 15 16  1  0
  3 17  1  0
 17 18  2  0
 18 19  1  0
 19 20  2  0
 20 21  1  0
 21 22  2  0
 13  8  1  0
 22 17  1  0
  1 23  1  0
  1 24  1  0
  1 25  1  0
  2 26  1  0
  2 27  1  0
  3 28  1  0
  4 29  1  0
  7 30  1  0
 10 31  1  0
 11 32  1  0
 12 33  1  0
 14 34  1  0
 14 35  1  0
 16 36  1  0
 16 37  1  0
 16 38  1  0
 19 39  1  0
 20 40  1  0
 21 41  1  0
M  END
>  <Energy>  (1362) 
6.3196128721679283

>  <compound_id>  (1362) 
34594

>  <target_id>  (1362) 
1

>  <reference_id>  (1362) 
54

>  <inspiration_ids>  (1362) 
[82, 54]

>  <energy_score>  (1362) 
25.82739345835842

>  <distance_score>  (1362) 
3.327533557419766

>  <path>  (1362) 
/opt/xchem-fragalysis-2/maxwin/BulkDock/SCRATCH/511022/C34594-P54/C34594-P54.minimised.mol

>  <scratch_subdir>  (1362) 
/opt/xchem-fragalysis-2/maxwin/BulkDock/SCRATCH/511022/C34594-P54

>  <fragmenstein_runtime>  (1362) 
4.9267871379852295

>  <fragmenstein_outcome>  (1362) 
too moved

>  <fragmenstein_mode>  (1362) 
expansion

>  <fragmenstein_error>  (1362) 


$$$$
C34595-P82
     RDKit          3D

 41 43  0  0  0  0  0  0  0  0999 V2000
  -10.2785  -26.6127   30.8305 C   0  0  0  0  0  0  0  0  0  0  0  0
   -9.8526  -25.2418   30.3263 C   0  0  0  0  0  0  0  0  0  0  0  0
  -10.9951  -24.2816   29.9864 C   0  0  0  0  0  0  0  0  0  0  0  0
  -11.9104  -25.0076   29.1846 N   0  0  0  0  0  0  0  0  0  0  0  0
  -12.0546  -25.0881   27.7336 C   0  0  0  0  0  0  0  0  0  0  0  0
  -11.4962  -24.5099   26.8816 O   0  0  0  0  0  0  0  0  0  0  0  0
  -13.1112  -26.0750   27.6627 N   0  0  0  0  0  0  0  0  0  0  0  0
  -13.8196  -26.5475   26.6044 C   0  0  0  0  0  0  0  0  0  0  0  0
  -13.8185  -25.9477   25.3770 C   0  0  0  0  0  0  0  0  0  0  0  0
  -14.7321  -26.4209   24.4542 C   0  0  0  0  0  0  0  0  0  0  0  0
  -15.5798  -27.4717   24.7982 C   0  0  0  0  0  0  0  0  0  0  0  0
  -15.5311  -28.0189   26.0743 C   0  0  0  0  0  0  0  0  0  0  0  0
  -16.4556  -29.1408   26.4755 C   0  0  0  0  0  0  0  0  0  0  0  0
  -15.9482  -30.2655   27.3493 C   0  0  0  0  0  0  0  0  0  0  0  0
  -16.2497  -30.5250   25.9039 C   0  0  0  0  0  0  0  0  0  0  0  0
  -14.6758  -27.5200   26.9879 N   0  0  0  0  0  0  0  0  0  0  0  0
  -11.6881  -23.6563   31.1784 C   0  0  0  0  0  0  0  0  0  0  0  0
  -12.6482  -22.7520   30.9030 N   0  0  0  0  0  0  0  0  0  0  0  0
  -13.5282  -22.5081   31.8810 C   0  0  0  0  0  0  0  0  0  0  0  0
  -13.4047  -23.0144   33.1434 C   0  0  0  0  0  0  0  0  0  0  0  0
  -12.2962  -23.7918   33.3635 C   0  0  0  0  0  0  0  0  0  0  0  0
  -11.4235  -24.1309   32.4065 N   0  0  0  0  0  0  0  0  0  0  0  0
  -10.7320  -26.5377   31.8200 H   0  0  0  0  0  0  0  0  0  0  0  0
  -10.9719  -27.1112   30.1496 H   0  0  0  0  0  0  0  0  0  0  0  0
   -9.4094  -27.2634   30.9224 H   0  0  0  0  0  0  0  0  0  0  0  0
   -9.2036  -24.8173   31.0900 H   0  0  0  0  0  0  0  0  0  0  0  0
   -9.2653  -25.3889   29.4127 H   0  0  0  0  0  0  0  0  0  0  0  0
  -10.6646  -23.4694   29.3411 H   0  0  0  0  0  0  0  0  0  0  0  0
  -12.6060  -25.5837   29.6192 H   0  0  0  0  0  0  0  0  0  0  0  0
  -13.2955  -26.4215   28.5737 H   0  0  0  0  0  0  0  0  0  0  0  0
  -13.1880  -25.0947   25.1646 H   0  0  0  0  0  0  0  0  0  0  0  0
  -14.7987  -25.9725   23.4669 H   0  0  0  0  0  0  0  0  0  0  0  0
  -16.2868  -27.8556   24.0682 H   0  0  0  0  0  0  0  0  0  0  0  0
  -17.4867  -28.8416   26.6499 H   0  0  0  0  0  0  0  0  0  0  0  0
  -16.6239  -30.6694   28.0940 H   0  0  0  0  0  0  0  0  0  0  0  0
  -14.9077  -30.2577   27.6550 H   0  0  0  0  0  0  0  0  0  0  0  0
  -15.4092  -30.6984   25.2399 H   0  0  0  0  0  0  0  0  0  0  0  0
  -17.1295  -31.1110   25.6648 H   0  0  0  0  0  0  0  0  0  0  0  0
  -14.3864  -21.9091   31.5990 H   0  0  0  0  0  0  0  0  0  0  0  0
  -14.1525  -22.8331   33.8979 H   0  0  0  0  0  0  0  0  0  0  0  0
  -12.0862  -24.2152   34.3341 H   0  0  0  0  0  0  0  0  0  0  0  0
  1  2  1  0
  2  3  1  0
  3  4  1  0
  4  5  1  0
  5  6  2  0
  5  7  1  0
  7  8  1  0
  8  9  2  0
  9 10  1  0
 10 11  2  0
 11 12  1  0
 12 13  1  0
 13 14  1  0
 14 15  1  0
 12 16  2  0
  3 17  1  0
 17 18  2  0
 18 19  1  0
 19 20  2  0
 20 21  1  0
 21 22  2  0
 16  8  1  0
 22 17  1  0
 15 13  1  0
  1 23  1  0
  1 24  1  0
  1 25  1  0
  2 26  1  0
  2 27  1  0
  3 28  1  0
  4 29  1  0
  7 30  1  0
  9 31  1  0
 10 32  1  0
 11 33  1  0
 13 34  1  0
 14 35  1  0
 14 36  1  0
 15 37  1  0
 15 38  1  0
 19 39  1  0
 20 40  1  0
 21 41  1  0
M  END
>  <Energy>  (1363) 
-33.927112135955277

>  <compound_id>  (1363) 
34595

>  <target_id>  (1363) 
1

>  <reference_id>  (1363) 
82

>  <inspiration_ids>  (1363) 
[82, 54]

>  <energy_score>  (1363) 
-32.9699726550038

>  <distance_score>  (1363) 
5.0961388822100275

>  <path>  (1363) 
/opt/xchem-fragalysis-2/maxwin/BulkDock/SCRATCH/511022/C34595-P82/C34595-P82.minimised.mol

>  <scratch_subdir>  (1363) 
/opt/xchem-fragalysis-2/maxwin/BulkDock/SCRATCH/511022/C34595-P82

>  <fragmenstein_runtime>  (1363) 
11.869925022125244

>  <fragmenstein_outcome>  (1363) 
too moved

>  <fragmenstein_mode>  (1363) 
expansion

>  <fragmenstein_error>  (1363) 


$$$$
C34595-P54
     RDKit          3D

 41 43  0  0  0  0  0  0  0  0999 V2000
  -10.9336  -22.6472   27.2931 C   0  0  0  0  0  0  0  0  0  0  0  0
  -10.7907  -21.9303   28.6308 C   0  0  0  0  0  0  0  0  0  0  0  0
  -10.0616  -22.7755   29.6881 C   0  0  0  0  0  0  0  0  0  0  0  0
  -10.7413  -24.0202   29.8869 N   0  0  0  0  0  0  0  0  0  0  0  0
  -10.6150  -25.0479   31.0093 C   0  0  0  0  0  0  0  0  0  0  0  0
   -9.9053  -25.0870   31.8875 O   0  0  0  0  0  0  0  0  0  0  0  0
  -11.7944  -25.9512   30.6517 N   0  0  0  0  0  0  0  0  0  0  0  0
  -12.3529  -26.9771   31.3363 C   0  0  0  0  0  0  0  0  0  0  0  0
  -11.8459  -27.3307   32.5695 C   0  0  0  0  0  0  0  0  0  0  0  0
  -12.5597  -28.2116   33.3406 C   0  0  0  0  0  0  0  0  0  0  0  0
  -13.7717  -28.6577   32.8620 C   0  0  0  0  0  0  0  0  0  0  0  0
  -14.2210  -28.2534   31.6039 C   0  0  0  0  0  0  0  0  0  0  0  0
  -15.5391  -28.7621   31.0672 C   0  0  0  0  0  0  0  0  0  0  0  0
  -16.5057  -27.8034   30.4086 C   0  0  0  0  0  0  0  0  0  0  0  0
  -16.8335  -28.3830   31.7512 C   0  0  0  0  0  0  0  0  0  0  0  0
  -13.5001  -27.4170   30.8316 N   0  0  0  0  0  0  0  0  0  0  0  0
  -10.0289  -22.1219   31.0750 C   0  0  0  0  0  0  0  0  0  0  0  0
  -11.1128  -21.4129   31.4389 N   0  0  0  0  0  0  0  0  0  0  0  0
  -11.2245  -21.1319   32.7479 C   0  0  0  0  0  0  0  0  0  0  0  0
  -10.3091  -21.5201   33.6939 C   0  0  0  0  0  0  0  0  0  0  0  0
   -9.2009  -22.1725   33.2177 C   0  0  0  0  0  0  0  0  0  0  0  0
   -9.0267  -22.4632   31.9168 N   0  0  0  0  0  0  0  0  0  0  0  0
  -11.4004  -21.9838   26.5610 H   0  0  0  0  0  0  0  0  0  0  0  0
   -9.9601  -22.9633   26.9125 H   0  0  0  0  0  0  0  0  0  0  0  0
  -11.5738  -23.5311   27.3643 H   0  0  0  0  0  0  0  0  0  0  0  0
  -11.8000  -21.6682   28.9729 H   0  0  0  0  0  0  0  0  0  0  0  0
  -10.2597  -20.9838   28.4833 H   0  0  0  0  0  0  0  0  0  0  0  0
   -9.0394  -23.0085   29.3714 H   0  0  0  0  0  0  0  0  0  0  0  0
  -11.5295  -24.2437   29.3141 H   0  0  0  0  0  0  0  0  0  0  0  0
  -12.1621  -25.6864   29.7605 H   0  0  0  0  0  0  0  0  0  0  0  0
  -10.9274  -26.9236   32.9685 H   0  0  0  0  0  0  0  0  0  0  0  0
  -12.1744  -28.5731   34.2870 H   0  0  0  0  0  0  0  0  0  0  0  0
  -14.3647  -29.3559   33.4455 H   0  0  0  0  0  0  0  0  0  0  0  0
  -15.4961  -29.7574   30.6311 H   0  0  0  0  0  0  0  0  0  0  0  0
  -17.0595  -28.1581   29.5473 H   0  0  0  0  0  0  0  0  0  0  0  0
  -16.2412  -26.7525   30.3586 H   0  0  0  0  0  0  0  0  0  0  0  0
  -16.8026  -27.7138   32.6038 H   0  0  0  0  0  0  0  0  0  0  0  0
  -17.6166  -29.1306   31.8031 H   0  0  0  0  0  0  0  0  0  0  0  0
  -12.1264  -20.5981   33.0350 H   0  0  0  0  0  0  0  0  0  0  0  0
  -10.4697  -21.3221   34.7432 H   0  0  0  0  0  0  0  0  0  0  0  0
   -8.4027  -22.5062   33.8730 H   0  0  0  0  0  0  0  0  0  0  0  0
  1  2  1  0
  2  3  1  0
  3  4  1  0
  4  5  1  0
  5  6  2  0
  5  7  1  0
  7  8  1  0
  8  9  2  0
  9 10  1  0
 10 11  2  0
 11 12  1  0
 12 13  1  0
 13 14  1  0
 14 15  1  0
 12 16  2  0
  3 17  1  0
 17 18  2  0
 18 19  1  0
 19 20  2  0
 20 21  1  0
 21 22  2  0
 16  8  1  0
 22 17  1  0
 15 13  1  0
  1 23  1  0
  1 24  1  0
  1 25  1  0
  2 26  1  0
  2 27  1  0
  3 28  1  0
  4 29  1  0
  7 30  1  0
  9 31  1  0
 10 32  1  0
 11 33  1  0
 13 34  1  0
 14 35  1  0
 14 36  1  0
 15 37  1  0
 15 38  1  0
 19 39  1  0
 20 40  1  0
 21 41  1  0
M  END
>  <Energy>  (1364) 
-19.136691351978147

>  <compound_id>  (1364) 
34595

>  <target_id>  (1364) 
1

>  <reference_id>  (1364) 
54

>  <inspiration_ids>  (1364) 
[82, 54]

>  <energy_score>  (1364) 
0.93378911621366

>  <distance_score>  (1364) 
3.144276050181721

>  <path>  (1364) 
/opt/xchem-fragalysis-2/maxwin/BulkDock/SCRATCH/511022/C34595-P54/C34595-P54.minimised.mol

>  <scratch_subdir>  (1364) 
/opt/xchem-fragalysis-2/maxwin/BulkDock/SCRATCH/511022/C34595-P54

>  <fragmenstein_runtime>  (1364) 
8.309381484985352

>  <fragmenstein_outcome>  (1364) 
too moved

>  <fragmenstein_mode>  (1364) 
expansion

>  <fragmenstein_error>  (1364) 


$$$$
C69282-P82
     RDKit          3D

 36 37  0  0  0  0  0  0  0  0999 V2000
  -12.4791  -21.2736   29.1261 O   0  0  0  0  0  0  0  0  0  0  0  0
  -11.9928  -22.0683   29.7508 C   0  0  0  0  0  0  0  0  0  0  0  0
  -12.0602  -22.3198   31.2344 N   0  0  0  0  0  0  0  0  0  0  0  0
  -12.8199  -21.6905   32.2295 C   0  0  0  0  0  0  0  0  0  0  0  0
  -13.3225  -22.8142   33.0698 C   0  0  0  0  0  0  0  0  0  0  0  0
  -12.2368  -23.4918   33.8500 C   0  0  0  0  0  0  0  0  0  0  0  0
  -11.2816  -24.3890   33.2811 N   0  0  0  0  0  0  0  0  0  0  0  0
  -10.8089  -25.4454   33.9751 C   0  0  0  0  0  0  0  0  0  0  0  0
   -9.6081  -25.7245   33.5789 N   0  0  0  0  0  0  0  0  0  0  0  0
   -9.4909  -25.0048   32.4473 C   0  0  0  0  0  0  0  0  0  0  0  0
  -10.4403  -24.0804   32.2750 N   0  0  0  0  0  0  0  0  0  0  0  0
  -11.1663  -23.2511   29.3459 N   0  0  0  0  0  0  0  0  0  0  0  0
  -10.8589  -23.7301   28.1157 C   0  0  0  0  0  0  0  0  0  0  0  0
  -11.9560  -23.8255   27.2973 C   0  0  0  0  0  0  0  0  0  0  0  0
  -12.4498  -25.1050   27.1127 C   0  0  0  0  0  0  0  0  0  0  0  0
  -11.8012  -26.1800   27.7053 C   0  0  0  0  0  0  0  0  0  0  0  0
  -10.6217  -25.9290   28.3723 C   0  0  0  0  0  0  0  0  0  0  0  0
  -10.0391  -26.7586   29.2462 O   0  0  0  0  0  0  0  0  0  0  0  0
  -10.9919  -27.0387   30.2290 C   0  0  0  0  0  0  0  0  0  0  0  0
  -11.9456  -27.8750   29.7301 F   0  0  0  0  0  0  0  0  0  0  0  0
  -11.6029  -25.9233   30.6770 F   0  0  0  0  0  0  0  0  0  0  0  0
  -10.4165  -27.6665   31.2601 F   0  0  0  0  0  0  0  0  0  0  0  0
  -10.0364  -24.7497   28.3641 N   0  0  0  0  0  0  0  0  0  0  0  0
  -11.4346  -23.0729   31.4786 H   0  0  0  0  0  0  0  0  0  0  0  0
  -13.7137  -21.2583   31.7938 H   0  0  0  0  0  0  0  0  0  0  0  0
  -12.2063  -20.9810   32.7866 H   0  0  0  0  0  0  0  0  0  0  0  0
  -13.8486  -23.5561   32.4532 H   0  0  0  0  0  0  0  0  0  0  0  0
  -14.0739  -22.4110   33.7593 H   0  0  0  0  0  0  0  0  0  0  0  0
  -11.7104  -22.7564   34.4430 H   0  0  0  0  0  0  0  0  0  0  0  0
  -12.8275  -24.1255   34.4912 H   0  0  0  0  0  0  0  0  0  0  0  0
  -11.3023  -25.8589   34.8261 H   0  0  0  0  0  0  0  0  0  0  0  0
   -8.6911  -25.1700   31.7474 H   0  0  0  0  0  0  0  0  0  0  0  0
  -10.8177  -23.7147   30.1662 H   0  0  0  0  0  0  0  0  0  0  0  0
  -12.5342  -22.9562   27.0144 H   0  0  0  0  0  0  0  0  0  0  0  0
  -13.3707  -25.2515   26.5573 H   0  0  0  0  0  0  0  0  0  0  0  0
  -12.2287  -27.1727   27.6398 H   0  0  0  0  0  0  0  0  0  0  0  0
  1  2  2  0
  2  3  1  0
  3  4  1  0
  4  5  1  0
  5  6  1  0
  6  7  1  0
  7  8  1  0
  8  9  2  0
  9 10  1  0
 10 11  2  0
  2 12  1  0
 12 13  1  0
 13 14  2  0
 14 15  1  0
 15 16  2  0
 16 17  1  0
 17 18  1  0
 18 19  1  0
 19 20  1  0
 19 21  1  0
 19 22  1  0
 17 23  2  0
 11  7  1  0
 23 13  1  0
  3 24  1  0
  4 25  1  0
  4 26  1  0
  5 27  1  0
  5 28  1  0
  6 29  1  0
  6 30  1  0
  8 31  1  0
 10 32  1  0
 12 33  1  0
 14 34  1  0
 15 35  1  0
 16 36  1  0
M  END
>  <Energy>  (1365) 
-23.572504904307532

>  <compound_id>  (1365) 
69282

>  <target_id>  (1365) 
1

>  <reference_id>  (1365) 
82

>  <inspiration_ids>  (1365) 
[82, 54]

>  <energy_score>  (1365) 
33.46367460690915

>  <distance_score>  (1365) 
3.5152873216497595

>  <path>  (1365) 
/opt/xchem-fragalysis-2/maxwin/BulkDock/SCRATCH/511022/C69282-P82/C69282-P82.minimised.mol

>  <scratch_subdir>  (1365) 
/opt/xchem-fragalysis-2/maxwin/BulkDock/SCRATCH/511022/C69282-P82

>  <fragmenstein_runtime>  (1365) 
6.741365671157837

>  <fragmenstein_outcome>  (1365) 
too moved

>  <fragmenstein_mode>  (1365) 
expansion

>  <fragmenstein_error>  (1365) 


$$$$
C69282-P54
     RDKit          3D

 36 37  0  0  0  0  0  0  0  0999 V2000
  -12.9076  -22.7477   29.4432 O   0  0  0  0  0  0  0  0  0  0  0  0
  -11.9505  -22.8439   30.0387 C   0  0  0  0  0  0  0  0  0  0  0  0
  -11.1138  -21.7807   30.7379 N   0  0  0  0  0  0  0  0  0  0  0  0
  -11.3499  -20.4031   30.9154 C   0  0  0  0  0  0  0  0  0  0  0  0
  -11.3497  -20.2229   32.4402 C   0  0  0  0  0  0  0  0  0  0  0  0
  -10.1234  -20.6996   33.2297 C   0  0  0  0  0  0  0  0  0  0  0  0
   -9.7903  -22.0919   33.3946 N   0  0  0  0  0  0  0  0  0  0  0  0
   -9.6475  -22.6960   34.6006 C   0  0  0  0  0  0  0  0  0  0  0  0
   -9.0428  -23.8473   34.4650 N   0  0  0  0  0  0  0  0  0  0  0  0
   -8.7387  -23.8676   33.1399 C   0  0  0  0  0  0  0  0  0  0  0  0
   -9.2328  -22.8516   32.4180 N   0  0  0  0  0  0  0  0  0  0  0  0
  -11.1714  -24.0892   30.4655 N   0  0  0  0  0  0  0  0  0  0  0  0
  -11.4710  -25.4117   30.3204 C   0  0  0  0  0  0  0  0  0  0  0  0
  -11.1976  -26.1042   31.4900 C   0  0  0  0  0  0  0  0  0  0  0  0
  -11.9090  -27.2433   31.8122 C   0  0  0  0  0  0  0  0  0  0  0  0
  -12.8088  -27.7117   30.8868 C   0  0  0  0  0  0  0  0  0  0  0  0
  -12.9660  -27.0057   29.7016 C   0  0  0  0  0  0  0  0  0  0  0  0
  -13.8651  -27.5353   28.8095 O   0  0  0  0  0  0  0  0  0  0  0  0
  -13.9579  -26.8093   27.5983 C   0  0  0  0  0  0  0  0  0  0  0  0
  -12.7790  -26.7665   26.9371 F   0  0  0  0  0  0  0  0  0  0  0  0
  -14.4505  -25.5687   27.7811 F   0  0  0  0  0  0  0  0  0  0  0  0
  -14.8307  -27.4712   26.7954 F   0  0  0  0  0  0  0  0  0  0  0  0
  -12.3473  -25.8477   29.4234 N   0  0  0  0  0  0  0  0  0  0  0  0
  -10.2721  -22.2013   31.1094 H   0  0  0  0  0  0  0  0  0  0  0  0
  -12.3401  -20.1651   30.5233 H   0  0  0  0  0  0  0  0  0  0  0  0
  -10.6322  -19.7937   30.3774 H   0  0  0  0  0  0  0  0  0  0  0  0
  -11.4887  -19.1527   32.6402 H   0  0  0  0  0  0  0  0  0  0  0  0
  -12.2281  -20.7226   32.8598 H   0  0  0  0  0  0  0  0  0  0  0  0
   -9.2159  -20.2084   32.8792 H   0  0  0  0  0  0  0  0  0  0  0  0
  -10.3271  -20.3347   34.2390 H   0  0  0  0  0  0  0  0  0  0  0  0
   -9.9994  -22.2460   35.5147 H   0  0  0  0  0  0  0  0  0  0  0  0
   -8.1726  -24.6716   32.6899 H   0  0  0  0  0  0  0  0  0  0  0  0
  -10.4032  -23.8208   31.0590 H   0  0  0  0  0  0  0  0  0  0  0  0
  -10.5014  -25.7066   32.2196 H   0  0  0  0  0  0  0  0  0  0  0  0
  -11.7460  -27.7668   32.7491 H   0  0  0  0  0  0  0  0  0  0  0  0
  -13.3695  -28.6243   31.0632 H   0  0  0  0  0  0  0  0  0  0  0  0
  1  2  2  0
  2  3  1  0
  3  4  1  0
  4  5  1  0
  5  6  1  0
  6  7  1  0
  7  8  1  0
  8  9  2  0
  9 10  1  0
 10 11  2  0
  2 12  1  0
 12 13  1  0
 13 14  2  0
 14 15  1  0
 15 16  2  0
 16 17  1  0
 17 18  1  0
 18 19  1  0
 19 20  1  0
 19 21  1  0
 19 22  1  0
 17 23  2  0
 11  7  1  0
 23 13  1  0
  3 24  1  0
  4 25  1  0
  4 26  1  0
  5 27  1  0
  5 28  1  0
  6 29  1  0
  6 30  1  0
  8 31  1  0
 10 32  1  0
 12 33  1  0
 14 34  1  0
 15 35  1  0
 16 36  1  0
M  END
>  <Energy>  (1366) 
-66.598003537015217

>  <compound_id>  (1366) 
69282

>  <target_id>  (1366) 
1

>  <reference_id>  (1366) 
54

>  <inspiration_ids>  (1366) 
[82, 54]

>  <energy_score>  (1366) 
-9.561824025801457

>  <distance_score>  (1366) 
2.685689879181877

>  <path>  (1366) 
/opt/xchem-fragalysis-2/maxwin/BulkDock/SCRATCH/511022/C69282-P54/C69282-P54.minimised.mol

>  <scratch_subdir>  (1366) 
/opt/xchem-fragalysis-2/maxwin/BulkDock/SCRATCH/511022/C69282-P54

>  <fragmenstein_runtime>  (1366) 
4.560960531234741

>  <fragmenstein_outcome>  (1366) 
too moved

>  <fragmenstein_mode>  (1366) 
expansion

>  <fragmenstein_error>  (1366) 


$$$$
C69283-P82
     RDKit          3D

 37 38  0  0  0  0  0  0  0  0999 V2000
  -11.8081  -22.5221   33.3867 C   0  0  0  0  0  0  0  0  0  0  0  0
  -10.8113  -23.4645   32.7821 C   0  0  0  0  0  0  0  0  0  0  0  0
   -9.6004  -23.5494   32.9233 O   0  0  0  0  0  0  0  0  0  0  0  0
  -11.2908  -24.3321   31.7858 C   0  0  0  0  0  0  0  0  0  0  0  0
  -11.9436  -23.7643   30.7049 C   0  0  0  0  0  0  0  0  0  0  0  0
  -12.0543  -24.5406   29.5949 C   0  0  0  0  0  0  0  0  0  0  0  0
  -11.5975  -25.8287   29.7159 C   0  0  0  0  0  0  0  0  0  0  0  0
  -11.7407  -26.7387   28.7535 N   0  0  0  0  0  0  0  0  0  0  0  0
  -12.0014  -26.5699   27.2798 C   0  0  0  0  0  0  0  0  0  0  0  0
  -12.2070  -25.6416   26.6771 O   0  0  0  0  0  0  0  0  0  0  0  0
  -11.8063  -27.9982   26.8373 N   0  0  0  0  0  0  0  0  0  0  0  0
  -11.7354  -28.5417   25.5690 C   0  0  0  0  0  0  0  0  0  0  0  0
  -10.2258  -28.5176   25.1506 C   0  0  0  0  0  0  0  0  0  0  0  0
   -9.0330  -29.6964   25.2453 C   0  0  0  0  0  0  0  0  0  0  0  0
   -8.5070  -30.4654   24.0348 N   0  0  0  0  0  0  0  0  0  0  0  0
   -7.3743  -30.3106   23.2661 C   0  0  0  0  0  0  0  0  0  0  0  0
   -7.2214  -31.2947   22.4150 N   0  0  0  0  0  0  0  0  0  0  0  0
   -8.1817  -32.1636   22.7859 C   0  0  0  0  0  0  0  0  0  0  0  0
   -8.9450  -31.7815   23.8165 N   0  0  0  0  0  0  0  0  0  0  0  0
  -10.9606  -26.3905   30.7541 N   0  0  0  0  0  0  0  0  0  0  0  0
  -10.7789  -25.6067   31.7944 C   0  0  0  0  0  0  0  0  0  0  0  0
  -11.7789  -22.5986   34.4641 H   0  0  0  0  0  0  0  0  0  0  0  0
  -12.8322  -22.7897   33.1031 H   0  0  0  0  0  0  0  0  0  0  0  0
  -11.6291  -21.5003   33.0427 H   0  0  0  0  0  0  0  0  0  0  0  0
  -12.2736  -22.7332   30.6818 H   0  0  0  0  0  0  0  0  0  0  0  0
  -12.5030  -24.1679   28.6859 H   0  0  0  0  0  0  0  0  0  0  0  0
  -11.5160  -27.6875   28.9456 H   0  0  0  0  0  0  0  0  0  0  0  0
  -11.7221  -28.5905   27.6415 H   0  0  0  0  0  0  0  0  0  0  0  0
  -12.2943  -27.8762   24.8993 H   0  0  0  0  0  0  0  0  0  0  0  0
  -12.3084  -29.4598   25.6772 H   0  0  0  0  0  0  0  0  0  0  0  0
  -10.3621  -28.3232   24.0920 H   0  0  0  0  0  0  0  0  0  0  0  0
   -9.7950  -27.6358   25.6253 H   0  0  0  0  0  0  0  0  0  0  0  0
   -8.1371  -29.1933   25.6086 H   0  0  0  0  0  0  0  0  0  0  0  0
   -9.3354  -30.4507   25.9759 H   0  0  0  0  0  0  0  0  0  0  0  0
   -6.6095  -29.5873   23.4687 H   0  0  0  0  0  0  0  0  0  0  0  0
   -8.3170  -33.1251   22.3110 H   0  0  0  0  0  0  0  0  0  0  0  0
  -10.1852  -26.0010   32.6096 H   0  0  0  0  0  0  0  0  0  0  0  0
  1  2  1  0
  2  3  2  0
  2  4  1  0
  4  5  2  0
  5  6  1  0
  6  7  2  0
  7  8  1  0
  8  9  1  0
  9 10  2  0
  9 11  1  0
 11 12  1  0
 12 13  1  0
 13 14  1  0
 14 15  1  0
 15 16  1  0
 16 17  2  0
 17 18  1  0
 18 19  2  0
  7 20  1  0
 20 21  2  0
 21  4  1  0
 19 15  1  0
  1 22  1  0
  1 23  1  0
  1 24  1  0
  5 25  1  0
  6 26  1  0
  8 27  1  0
 11 28  1  0
 12 29  1  0
 12 30  1  0
 13 31  1  0
 13 32  1  0
 14 33  1  0
 14 34  1  0
 16 35  1  0
 18 36  1  0
 21 37  1  0
M  END
>  <Energy>  (1367) 
15.027169682254145

>  <compound_id>  (1367) 
69283

>  <target_id>  (1367) 
1

>  <reference_id>  (1367) 
82

>  <inspiration_ids>  (1367) 
[82, 54]

>  <energy_score>  (1367) 
38.585937183809335

>  <distance_score>  (1367) 
2.194159972156946

>  <path>  (1367) 
/opt/xchem-fragalysis-2/maxwin/BulkDock/SCRATCH/511022/C69283-P82/C69283-P82.minimised.mol

>  <scratch_subdir>  (1367) 
/opt/xchem-fragalysis-2/maxwin/BulkDock/SCRATCH/511022/C69283-P82

>  <fragmenstein_runtime>  (1367) 
4.964999675750732

>  <fragmenstein_outcome>  (1367) 
too moved

>  <fragmenstein_mode>  (1367) 
expansion

>  <fragmenstein_error>  (1367) 


$$$$
C69283-P54
     RDKit          3D

 37 38  0  0  0  0  0  0  0  0999 V2000
   -9.4364  -22.0976   33.9000 C   0  0  0  0  0  0  0  0  0  0  0  0
   -9.3822  -23.3792   33.1352 C   0  0  0  0  0  0  0  0  0  0  0  0
   -8.7137  -24.3329   33.5184 O   0  0  0  0  0  0  0  0  0  0  0  0
  -10.1829  -23.5127   31.9059 C   0  0  0  0  0  0  0  0  0  0  0  0
  -10.8291  -22.4697   31.2655 C   0  0  0  0  0  0  0  0  0  0  0  0
  -11.5840  -22.7446   30.1219 C   0  0  0  0  0  0  0  0  0  0  0  0
  -11.6925  -24.0575   29.6719 C   0  0  0  0  0  0  0  0  0  0  0  0
  -12.5201  -24.3280   28.5970 N   0  0  0  0  0  0  0  0  0  0  0  0
  -12.9111  -25.6843   27.9438 C   0  0  0  0  0  0  0  0  0  0  0  0
  -12.5415  -26.7404   28.1619 O   0  0  0  0  0  0  0  0  0  0  0  0
  -14.0040  -25.1866   26.9548 N   0  0  0  0  0  0  0  0  0  0  0  0
  -14.9098  -25.9276   26.1174 C   0  0  0  0  0  0  0  0  0  0  0  0
  -15.7958  -26.9230   26.8587 C   0  0  0  0  0  0  0  0  0  0  0  0
  -15.0357  -28.1603   27.3398 C   0  0  0  0  0  0  0  0  0  0  0  0
  -15.8311  -29.3652   27.2346 N   0  0  0  0  0  0  0  0  0  0  0  0
  -16.4854  -30.0269   28.2236 C   0  0  0  0  0  0  0  0  0  0  0  0
  -17.0998  -31.0711   27.7167 N   0  0  0  0  0  0  0  0  0  0  0  0
  -16.7755  -31.0061   26.3916 C   0  0  0  0  0  0  0  0  0  0  0  0
  -15.9934  -29.9791   26.0447 N   0  0  0  0  0  0  0  0  0  0  0  0
  -11.0984  -25.0816   30.2989 N   0  0  0  0  0  0  0  0  0  0  0  0
  -10.3556  -24.7802   31.3855 C   0  0  0  0  0  0  0  0  0  0  0  0
   -9.0319  -22.2752   34.8997 H   0  0  0  0  0  0  0  0  0  0  0  0
  -10.4673  -21.7550   34.0204 H   0  0  0  0  0  0  0  0  0  0  0  0
   -8.8329  -21.3409   33.3934 H   0  0  0  0  0  0  0  0  0  0  0  0
  -10.7674  -21.4478   31.6261 H   0  0  0  0  0  0  0  0  0  0  0  0
  -12.0911  -21.9317   29.6154 H   0  0  0  0  0  0  0  0  0  0  0  0
  -13.0922  -23.5991   28.2261 H   0  0  0  0  0  0  0  0  0  0  0  0
  -14.0245  -24.1814   26.9510 H   0  0  0  0  0  0  0  0  0  0  0  0
  -15.5459  -25.1862   25.6260 H   0  0  0  0  0  0  0  0  0  0  0  0
  -14.3123  -26.4298   25.3517 H   0  0  0  0  0  0  0  0  0  0  0  0
  -16.2825  -26.4374   27.7135 H   0  0  0  0  0  0  0  0  0  0  0  0
  -16.5992  -27.2193   26.1720 H   0  0  0  0  0  0  0  0  0  0  0  0
  -14.7467  -28.0511   28.3904 H   0  0  0  0  0  0  0  0  0  0  0  0
  -14.1292  -28.3417   26.7525 H   0  0  0  0  0  0  0  0  0  0  0  0
  -16.4843  -29.7178   29.2595 H   0  0  0  0  0  0  0  0  0  0  0  0
  -17.1192  -31.7279   25.6615 H   0  0  0  0  0  0  0  0  0  0  0  0
   -9.9322  -25.6208   31.9063 H   0  0  0  0  0  0  0  0  0  0  0  0
  1  2  1  0
  2  3  2  0
  2  4  1  0
  4  5  2  0
  5  6  1  0
  6  7  2  0
  7  8  1  0
  8  9  1  0
  9 10  2  0
  9 11  1  0
 11 12  1  0
 12 13  1  0
 13 14  1  0
 14 15  1  0
 15 16  1  0
 16 17  2  0
 17 18  1  0
 18 19  2  0
  7 20  1  0
 20 21  2  0
 21  4  1  0
 19 15  1  0
  1 22  1  0
  1 23  1  0
  1 24  1  0
  5 25  1  0
  6 26  1  0
  8 27  1  0
 11 28  1  0
 12 29  1  0
 12 30  1  0
 13 31  1  0
 13 32  1  0
 14 33  1  0
 14 34  1  0
 16 35  1  0
 18 36  1  0
 21 37  1  0
M  END
>  <Energy>  (1368) 
-29.76836790693989

>  <compound_id>  (1368) 
69283

>  <target_id>  (1368) 
1

>  <reference_id>  (1368) 
54

>  <inspiration_ids>  (1368) 
[82, 54]

>  <energy_score>  (1368) 
-6.209600405390603

>  <distance_score>  (1368) 
1.909615988166972

>  <path>  (1368) 
/opt/xchem-fragalysis-2/maxwin/BulkDock/SCRATCH/511022/C69283-P54/C69283-P54.minimised.mol

>  <scratch_subdir>  (1368) 
/opt/xchem-fragalysis-2/maxwin/BulkDock/SCRATCH/511022/C69283-P54

>  <fragmenstein_runtime>  (1368) 
9.822237014770508

>  <fragmenstein_outcome>  (1368) 
too moved

>  <fragmenstein_mode>  (1368) 
expansion

>  <fragmenstein_error>  (1368) 


$$$$
C69284-P82
     RDKit          3D

 38 39  0  0  0  0  0  0  0  0999 V2000
  -12.2729  -23.0808   24.9166 C   0  0  0  0  0  0  0  0  0  0  0  0
  -13.6202  -23.3894   24.5912 O   0  0  0  0  0  0  0  0  0  0  0  0
  -14.2343  -24.4852   25.0535 C   0  0  0  0  0  0  0  0  0  0  0  0
  -15.4000  -24.7090   24.7248 O   0  0  0  0  0  0  0  0  0  0  0  0
  -13.4908  -25.4963   25.8698 C   0  0  0  0  0  0  0  0  0  0  0  0
  -13.8219  -26.7964   25.5264 C   0  0  0  0  0  0  0  0  0  0  0  0
  -13.2447  -27.8415   26.2073 C   0  0  0  0  0  0  0  0  0  0  0  0
  -12.3583  -27.5586   27.2153 C   0  0  0  0  0  0  0  0  0  0  0  0
  -12.0537  -26.2398   27.5120 C   0  0  0  0  0  0  0  0  0  0  0  0
  -11.2250  -26.1557   28.6080 N   0  0  0  0  0  0  0  0  0  0  0  0
  -10.7665  -24.9400   29.4129 C   0  0  0  0  0  0  0  0  0  0  0  0
  -10.9479  -23.8329   29.2387 O   0  0  0  0  0  0  0  0  0  0  0  0
  -10.0666  -25.6698   30.5954 N   0  0  0  0  0  0  0  0  0  0  0  0
   -9.5459  -25.1519   31.8297 C   0  0  0  0  0  0  0  0  0  0  0  0
  -10.4697  -25.5165   32.9583 C   0  0  0  0  0  0  0  0  0  0  0  0
  -11.8715  -25.0095   32.7360 C   0  0  0  0  0  0  0  0  0  0  0  0
  -12.0548  -23.6157   32.5781 N   0  0  0  0  0  0  0  0  0  0  0  0
  -12.5696  -22.9800   31.5119 C   0  0  0  0  0  0  0  0  0  0  0  0
  -12.6010  -21.7024   31.7810 N   0  0  0  0  0  0  0  0  0  0  0  0
  -12.1865  -21.6394   33.0719 C   0  0  0  0  0  0  0  0  0  0  0  0
  -11.8717  -22.8054   33.6123 N   0  0  0  0  0  0  0  0  0  0  0  0
  -12.6016  -25.1836   26.8654 N   0  0  0  0  0  0  0  0  0  0  0  0
  -12.0010  -22.2514   24.2588 H   0  0  0  0  0  0  0  0  0  0  0  0
  -11.5903  -23.9102   24.7190 H   0  0  0  0  0  0  0  0  0  0  0  0
  -12.1914  -22.7736   25.9623 H   0  0  0  0  0  0  0  0  0  0  0  0
  -14.5393  -27.0009   24.7333 H   0  0  0  0  0  0  0  0  0  0  0  0
  -13.5017  -28.8687   25.9605 H   0  0  0  0  0  0  0  0  0  0  0  0
  -11.9565  -28.3918   27.7778 H   0  0  0  0  0  0  0  0  0  0  0  0
  -10.8219  -26.9843   28.9937 H   0  0  0  0  0  0  0  0  0  0  0  0
  -10.0030  -26.6532   30.3969 H   0  0  0  0  0  0  0  0  0  0  0  0
   -9.4875  -24.0761   31.7859 H   0  0  0  0  0  0  0  0  0  0  0  0
   -8.5568  -25.5778   31.9967 H   0  0  0  0  0  0  0  0  0  0  0  0
  -10.0669  -25.2216   33.9162 H   0  0  0  0  0  0  0  0  0  0  0  0
  -10.5739  -26.5995   33.0044 H   0  0  0  0  0  0  0  0  0  0  0  0
  -12.2799  -25.4714   31.8391 H   0  0  0  0  0  0  0  0  0  0  0  0
  -12.5090  -25.2807   33.5786 H   0  0  0  0  0  0  0  0  0  0  0  0
  -12.9048  -23.4599   30.6047 H   0  0  0  0  0  0  0  0  0  0  0  0
  -12.1129  -20.7184   33.6351 H   0  0  0  0  0  0  0  0  0  0  0  0
  1  2  1  0
  2  3  1  0
  3  4  2  0
  3  5  1  0
  5  6  2  0
  6  7  1  0
  7  8  2  0
  8  9  1  0
  9 10  1  0
 10 11  1  0
 11 12  2  0
 11 13  1  0
 13 14  1  0
 14 15  1  0
 15 16  1  0
 16 17  1  0
 17 18  1  0
 18 19  2  0
 19 20  1  0
 20 21  2  0
  9 22  2  0
 22  5  1  0
 21 17  1  0
  1 23  1  0
  1 24  1  0
  1 25  1  0
  6 26  1  0
  7 27  1  0
  8 28  1  0
 10 29  1  0
 13 30  1  0
 14 31  1  0
 14 32  1  0
 15 33  1  0
 15 34  1  0
 16 35  1  0
 16 36  1  0
 18 37  1  0
 20 38  1  0
M  END
>  <Energy>  (1369) 
8.0936978378041626

>  <compound_id>  (1369) 
69284

>  <target_id>  (1369) 
1

>  <reference_id>  (1369) 
82

>  <inspiration_ids>  (1369) 
[82, 54]

>  <energy_score>  (1369) 
-1.125550374839463

>  <distance_score>  (1369) 
4.019376529736209

>  <path>  (1369) 
/opt/xchem-fragalysis-2/maxwin/BulkDock/SCRATCH/511022/C69284-P82/C69284-P82.minimised.mol

>  <scratch_subdir>  (1369) 
/opt/xchem-fragalysis-2/maxwin/BulkDock/SCRATCH/511022/C69284-P82

>  <fragmenstein_runtime>  (1369) 
7.754031419754028

>  <fragmenstein_outcome>  (1369) 
too moved

>  <fragmenstein_mode>  (1369) 
expansion

>  <fragmenstein_error>  (1369) 


$$$$
C69284-P54
     RDKit          3D

 38 39  0  0  0  0  0  0  0  0999 V2000
  -12.0135  -21.6820   23.9010 C   0  0  0  0  0  0  0  0  0  0  0  0
  -12.2830  -22.3740   25.1223 O   0  0  0  0  0  0  0  0  0  0  0  0
  -11.2578  -23.0873   25.6226 C   0  0  0  0  0  0  0  0  0  0  0  0
  -10.1598  -23.2674   25.1296 O   0  0  0  0  0  0  0  0  0  0  0  0
  -11.6380  -23.7614   26.8547 C   0  0  0  0  0  0  0  0  0  0  0  0
  -11.6353  -25.1522   26.8998 C   0  0  0  0  0  0  0  0  0  0  0  0
  -11.8289  -25.7579   28.1285 C   0  0  0  0  0  0  0  0  0  0  0  0
  -11.9752  -24.9465   29.2446 C   0  0  0  0  0  0  0  0  0  0  0  0
  -11.9443  -23.5620   29.0819 C   0  0  0  0  0  0  0  0  0  0  0  0
  -11.9815  -22.7764   30.1998 N   0  0  0  0  0  0  0  0  0  0  0  0
  -11.6586  -21.3431   30.3854 C   0  0  0  0  0  0  0  0  0  0  0  0
  -11.3692  -20.5248   29.6008 O   0  0  0  0  0  0  0  0  0  0  0  0
  -11.7127  -21.2766   31.8445 N   0  0  0  0  0  0  0  0  0  0  0  0
  -11.3440  -20.2413   32.7413 C   0  0  0  0  0  0  0  0  0  0  0  0
  -10.6237  -20.9249   33.8959 C   0  0  0  0  0  0  0  0  0  0  0  0
   -9.2539  -21.4888   33.4927 C   0  0  0  0  0  0  0  0  0  0  0  0
   -9.2873  -22.8339   32.9883 N   0  0  0  0  0  0  0  0  0  0  0  0
   -9.2799  -23.2737   31.7084 C   0  0  0  0  0  0  0  0  0  0  0  0
   -9.3505  -24.5828   31.7023 N   0  0  0  0  0  0  0  0  0  0  0  0
   -9.1916  -24.8887   33.0187 C   0  0  0  0  0  0  0  0  0  0  0  0
   -9.2324  -23.8571   33.8564 N   0  0  0  0  0  0  0  0  0  0  0  0
  -11.8042  -22.9575   27.9125 N   0  0  0  0  0  0  0  0  0  0  0  0
  -12.7766  -21.9789   23.1854 H   0  0  0  0  0  0  0  0  0  0  0  0
  -11.0351  -21.8988   23.4643 H   0  0  0  0  0  0  0  0  0  0  0  0
  -12.0832  -20.6073   24.0755 H   0  0  0  0  0  0  0  0  0  0  0  0
  -11.4532  -25.7445   26.0108 H   0  0  0  0  0  0  0  0  0  0  0  0
  -11.8162  -26.8394   28.2232 H   0  0  0  0  0  0  0  0  0  0  0  0
  -12.0433  -25.3983   30.2270 H   0  0  0  0  0  0  0  0  0  0  0  0
  -12.1039  -23.2058   31.0928 H   0  0  0  0  0  0  0  0  0  0  0  0
  -12.0808  -22.1350   32.2002 H   0  0  0  0  0  0  0  0  0  0  0  0
  -12.2624  -19.7606   33.0911 H   0  0  0  0  0  0  0  0  0  0  0  0
  -10.7284  -19.4953   32.2321 H   0  0  0  0  0  0  0  0  0  0  0  0
  -10.5437  -20.1772   34.6790 H   0  0  0  0  0  0  0  0  0  0  0  0
  -11.2413  -21.7207   34.3240 H   0  0  0  0  0  0  0  0  0  0  0  0
   -8.7425  -20.8498   32.7773 H   0  0  0  0  0  0  0  0  0  0  0  0
   -8.5947  -21.5800   34.3563 H   0  0  0  0  0  0  0  0  0  0  0  0
   -9.2396  -22.6269   30.8444 H   0  0  0  0  0  0  0  0  0  0  0  0
   -9.0759  -25.8913   33.3981 H   0  0  0  0  0  0  0  0  0  0  0  0
  1  2  1  0
  2  3  1  0
  3  4  2  0
  3  5  1  0
  5  6  2  0
  6  7  1  0
  7  8  2  0
  8  9  1  0
  9 10  1  0
 10 11  1  0
 11 12  2  0
 11 13  1  0
 13 14  1  0
 14 15  1  0
 15 16  1  0
 16 17  1  0
 17 18  1  0
 18 19  2  0
 19 20  1  0
 20 21  2  0
  9 22  2  0
 22  5  1  0
 21 17  1  0
  1 23  1  0
  1 24  1  0
  1 25  1  0
  6 26  1  0
  7 27  1  0
  8 28  1  0
 10 29  1  0
 13 30  1  0
 14 31  1  0
 14 32  1  0
 15 33  1  0
 15 34  1  0
 16 35  1  0
 16 36  1  0
 18 37  1  0
 20 38  1  0
M  END
>  <Energy>  (1370) 
-13.999778098244112

>  <compound_id>  (1370) 
69284

>  <target_id>  (1370) 
1

>  <reference_id>  (1370) 
54

>  <inspiration_ids>  (1370) 
[82, 54]

>  <energy_score>  (1370) 
-20.686524946474663

>  <distance_score>  (1370) 
2.2499832295926265

>  <path>  (1370) 
/opt/xchem-fragalysis-2/maxwin/BulkDock/SCRATCH/511022/C69284-P54/C69284-P54.minimised.mol

>  <scratch_subdir>  (1370) 
/opt/xchem-fragalysis-2/maxwin/BulkDock/SCRATCH/511022/C69284-P54

>  <fragmenstein_runtime>  (1370) 
7.158617734909058

>  <fragmenstein_outcome>  (1370) 
too moved

>  <fragmenstein_mode>  (1370) 
expansion

>  <fragmenstein_error>  (1370) 


$$$$
C34596-P82
     RDKit          3D

 38 39  0  0  0  0  0  0  0  0999 V2000
  -10.4161  -26.3748   30.6788 C   0  0  0  0  0  0  0  0  0  0  0  0
   -9.7954  -25.3707   29.7290 C   0  0  0  0  0  0  0  0  0  0  0  0
  -10.7079  -24.3844   28.9997 C   0  0  0  0  0  0  0  0  0  0  0  0
  -11.6784  -23.7867   29.8356 N   0  0  0  0  0  0  0  0  0  0  0  0
  -11.6745  -23.5496   31.3295 C   0  0  0  0  0  0  0  0  0  0  0  0
  -10.8664  -23.7291   32.0944 O   0  0  0  0  0  0  0  0  0  0  0  0
  -13.1056  -23.0966   31.5060 N   0  0  0  0  0  0  0  0  0  0  0  0
  -13.8157  -22.8755   32.6202 C   0  0  0  0  0  0  0  0  0  0  0  0
  -13.6228  -23.8714   33.5569 C   0  0  0  0  0  0  0  0  0  0  0  0
  -14.7342  -24.2675   34.2600 C   0  0  0  0  0  0  0  0  0  0  0  0
  -15.9055  -23.5563   34.1353 C   0  0  0  0  0  0  0  0  0  0  0  0
  -15.9324  -22.5004   33.2513 C   0  0  0  0  0  0  0  0  0  0  0  0
  -17.1256  -21.8013   33.1917 O   0  0  0  0  0  0  0  0  0  0  0  0
  -17.2044  -20.9397   32.0653 C   0  0  0  0  0  0  0  0  0  0  0  0
  -14.9138  -22.1460   32.4605 N   0  0  0  0  0  0  0  0  0  0  0  0
  -11.4264  -24.8508   27.7811 C   0  0  0  0  0  0  0  0  0  0  0  0
  -11.8188  -23.8330   26.9775 N   0  0  0  0  0  0  0  0  0  0  0  0
  -12.6822  -24.1263   26.0123 C   0  0  0  0  0  0  0  0  0  0  0  0
  -13.1761  -25.3930   25.8436 C   0  0  0  0  0  0  0  0  0  0  0  0
  -12.6995  -26.3622   26.6981 C   0  0  0  0  0  0  0  0  0  0  0  0
  -11.8334  -26.1222   27.6861 N   0  0  0  0  0  0  0  0  0  0  0  0
  -10.7930  -25.9621   31.6109 H   0  0  0  0  0  0  0  0  0  0  0  0
   -9.6714  -27.1261   30.9502 H   0  0  0  0  0  0  0  0  0  0  0  0
  -11.2307  -26.9039   30.1787 H   0  0  0  0  0  0  0  0  0  0  0  0
   -9.0687  -24.8424   30.3329 H   0  0  0  0  0  0  0  0  0  0  0  0
   -9.2422  -25.9182   28.9585 H   0  0  0  0  0  0  0  0  0  0  0  0
  -10.1475  -23.5727   28.5577 H   0  0  0  0  0  0  0  0  0  0  0  0
  -12.5975  -23.5929   29.4644 H   0  0  0  0  0  0  0  0  0  0  0  0
  -13.5284  -22.9598   30.6068 H   0  0  0  0  0  0  0  0  0  0  0  0
  -12.7211  -24.4713   33.6092 H   0  0  0  0  0  0  0  0  0  0  0  0
  -14.7016  -25.1450   34.8970 H   0  0  0  0  0  0  0  0  0  0  0  0
  -16.7890  -23.8276   34.7004 H   0  0  0  0  0  0  0  0  0  0  0  0
  -17.0834  -21.4948   31.1282 H   0  0  0  0  0  0  0  0  0  0  0  0
  -16.4740  -20.1264   32.1361 H   0  0  0  0  0  0  0  0  0  0  0  0
  -18.2016  -20.4891   32.0573 H   0  0  0  0  0  0  0  0  0  0  0  0
  -12.9788  -23.3051   25.3670 H   0  0  0  0  0  0  0  0  0  0  0  0
  -13.8962  -25.6193   25.0688 H   0  0  0  0  0  0  0  0  0  0  0  0
  -13.0259  -27.3943   26.6075 H   0  0  0  0  0  0  0  0  0  0  0  0
  1  2  1  0
  2  3  1  0
  3  4  1  0
  4  5  1  0
  5  6  2  0
  5  7  1  0
  7  8  1  0
  8  9  2  0
  9 10  1  0
 10 11  2  0
 11 12  1  0
 12 13  1  0
 13 14  1  0
 12 15  2  0
  3 16  1  0
 16 17  2  0
 17 18  1  0
 18 19  2  0
 19 20  1  0
 20 21  2  0
 15  8  1  0
 21 16  1  0
  1 22  1  0
  1 23  1  0
  1 24  1  0
  2 25  1  0
  2 26  1  0
  3 27  1  0
  4 28  1  0
  7 29  1  0
  9 30  1  0
 10 31  1  0
 11 32  1  0
 14 33  1  0
 14 34  1  0
 14 35  1  0
 18 36  1  0
 19 37  1  0
 20 38  1  0
M  END
>  <Energy>  (1371) 
-26.438164992810464

>  <compound_id>  (1371) 
34596

>  <target_id>  (1371) 
1

>  <reference_id>  (1371) 
82

>  <inspiration_ids>  (1371) 
[82, 54]

>  <energy_score>  (1371) 
13.006391305693626

>  <distance_score>  (1371) 
3.6695296131775423

>  <path>  (1371) 
/opt/xchem-fragalysis-2/maxwin/BulkDock/SCRATCH/511022/C34596-P82/C34596-P82.minimised.mol

>  <scratch_subdir>  (1371) 
/opt/xchem-fragalysis-2/maxwin/BulkDock/SCRATCH/511022/C34596-P82

>  <fragmenstein_runtime>  (1371) 
5.68273663520813

>  <fragmenstein_outcome>  (1371) 
too moved

>  <fragmenstein_mode>  (1371) 
expansion

>  <fragmenstein_error>  (1371) 


$$$$
C34596-P54
     RDKit          3D

 38 39  0  0  0  0  0  0  0  0999 V2000
   -9.0236  -23.1241   32.9368 C   0  0  0  0  0  0  0  0  0  0  0  0
   -8.9209  -23.4222   31.4438 C   0  0  0  0  0  0  0  0  0  0  0  0
  -10.1993  -23.1834   30.6765 C   0  0  0  0  0  0  0  0  0  0  0  0
  -11.0437  -24.3337   30.5672 N   0  0  0  0  0  0  0  0  0  0  0  0
  -11.1499  -25.5553   31.4420 C   0  0  0  0  0  0  0  0  0  0  0  0
  -10.5371  -25.8695   32.3339 O   0  0  0  0  0  0  0  0  0  0  0  0
  -12.3915  -26.1878   30.8274 N   0  0  0  0  0  0  0  0  0  0  0  0
  -13.1427  -27.2465   31.2451 C   0  0  0  0  0  0  0  0  0  0  0  0
  -14.4539  -27.0703   30.8254 C   0  0  0  0  0  0  0  0  0  0  0  0
  -15.4234  -27.1313   31.8072 C   0  0  0  0  0  0  0  0  0  0  0  0
  -15.0720  -27.5652   33.0767 C   0  0  0  0  0  0  0  0  0  0  0  0
  -13.7746  -27.9912   33.2824 C   0  0  0  0  0  0  0  0  0  0  0  0
  -13.5339  -28.6748   34.4510 O   0  0  0  0  0  0  0  0  0  0  0  0
  -12.8762  -29.8992   34.1353 C   0  0  0  0  0  0  0  0  0  0  0  0
  -12.7774  -27.8067   32.4067 N   0  0  0  0  0  0  0  0  0  0  0  0
  -10.0502  -22.8343   29.2026 C   0  0  0  0  0  0  0  0  0  0  0  0
  -10.6270  -21.6832   28.8362 N   0  0  0  0  0  0  0  0  0  0  0  0
  -11.1710  -21.6701   27.6133 C   0  0  0  0  0  0  0  0  0  0  0  0
  -11.2284  -22.7519   26.7663 C   0  0  0  0  0  0  0  0  0  0  0  0
  -10.5546  -23.8601   27.1905 C   0  0  0  0  0  0  0  0  0  0  0  0
   -9.9287  -23.9128   28.3735 N   0  0  0  0  0  0  0  0  0  0  0  0
   -9.2592  -22.0676   33.1029 H   0  0  0  0  0  0  0  0  0  0  0  0
   -8.0681  -23.3342   33.4270 H   0  0  0  0  0  0  0  0  0  0  0  0
   -9.7924  -23.7209   33.4282 H   0  0  0  0  0  0  0  0  0  0  0  0
   -8.1394  -22.7768   31.0386 H   0  0  0  0  0  0  0  0  0  0  0  0
   -8.6107  -24.4591   31.3078 H   0  0  0  0  0  0  0  0  0  0  0  0
  -10.7930  -22.4011   31.1646 H   0  0  0  0  0  0  0  0  0  0  0  0
  -11.6942  -24.4056   29.8107 H   0  0  0  0  0  0  0  0  0  0  0  0
  -12.7331  -25.6074   30.0878 H   0  0  0  0  0  0  0  0  0  0  0  0
  -14.7067  -26.6487   29.8581 H   0  0  0  0  0  0  0  0  0  0  0  0
  -16.4525  -26.8589   31.5889 H   0  0  0  0  0  0  0  0  0  0  0  0
  -15.8204  -27.6805   33.8531 H   0  0  0  0  0  0  0  0  0  0  0  0
  -13.0915  -30.2736   33.1266 H   0  0  0  0  0  0  0  0  0  0  0  0
  -13.2387  -30.6603   34.8318 H   0  0  0  0  0  0  0  0  0  0  0  0
  -11.8040  -29.7660   34.2819 H   0  0  0  0  0  0  0  0  0  0  0  0
  -11.5503  -20.7049   27.3132 H   0  0  0  0  0  0  0  0  0  0  0  0
  -11.7015  -22.6854   25.7965 H   0  0  0  0  0  0  0  0  0  0  0  0
  -10.4823  -24.7532   26.5786 H   0  0  0  0  0  0  0  0  0  0  0  0
  1  2  1  0
  2  3  1  0
  3  4  1  0
  4  5  1  0
  5  6  2  0
  5  7  1  0
  7  8  1  0
  8  9  2  0
  9 10  1  0
 10 11  2  0
 11 12  1  0
 12 13  1  0
 13 14  1  0
 12 15  2  0
  3 16  1  0
 16 17  2  0
 17 18  1  0
 18 19  2  0
 19 20  1  0
 20 21  2  0
 15  8  1  0
 21 16  1  0
  1 22  1  0
  1 23  1  0
  1 24  1  0
  2 25  1  0
  2 26  1  0
  3 27  1  0
  4 28  1  0
  7 29  1  0
  9 30  1  0
 10 31  1  0
 11 32  1  0
 14 33  1  0
 14 34  1  0
 14 35  1  0
 18 36  1  0
 19 37  1  0
 20 38  1  0
M  END
>  <Energy>  (1372) 
-0.41967390461154697

>  <compound_id>  (1372) 
34596

>  <target_id>  (1372) 
1

>  <reference_id>  (1372) 
54

>  <inspiration_ids>  (1372) 
[82, 54]

>  <energy_score>  (1372) 
39.02488239389055

>  <distance_score>  (1372) 
2.9822132077407266

>  <path>  (1372) 
/opt/xchem-fragalysis-2/maxwin/BulkDock/SCRATCH/511022/C34596-P54/C34596-P54.minimised.mol

>  <scratch_subdir>  (1372) 
/opt/xchem-fragalysis-2/maxwin/BulkDock/SCRATCH/511022/C34596-P54

>  <fragmenstein_runtime>  (1372) 
4.423108339309692

>  <fragmenstein_outcome>  (1372) 
too moved

>  <fragmenstein_mode>  (1372) 
expansion

>  <fragmenstein_error>  (1372) 


$$$$
C69285-P82
     RDKit          3D

 38 39  0  0  0  0  0  0  0  0999 V2000
  -10.3136  -24.5551   28.0211 C   0  0  0  0  0  0  0  0  0  0  0  0
  -11.7768  -24.4573   28.2818 N   0  0  0  0  0  0  0  0  0  0  0  0
  -11.8318  -25.3425   27.0958 C   0  0  0  0  0  0  0  0  0  0  0  0
  -11.8133  -26.8115   27.6210 C   0  0  0  0  0  0  0  0  0  0  0  0
  -11.0303  -26.9205   28.8683 N   0  0  0  0  0  0  0  0  0  0  0  0
  -11.2878  -26.4407   30.1649 C   0  0  0  0  0  0  0  0  0  0  0  0
  -12.2356  -25.8934   30.6105 O   0  0  0  0  0  0  0  0  0  0  0  0
  -10.1830  -26.7320   31.1415 C   0  0  0  0  0  0  0  0  0  0  0  0
   -9.9614  -25.5577   31.9881 C   0  0  0  0  0  0  0  0  0  0  0  0
   -9.7852  -24.6158   32.6420 N   0  0  0  0  0  0  0  0  0  0  0  0
  -12.1396  -23.1371   28.4427 C   0  0  0  0  0  0  0  0  0  0  0  0
  -12.5096  -22.3341   27.6478 O   0  0  0  0  0  0  0  0  0  0  0  0
  -12.1362  -22.7539   29.8656 C   0  0  0  0  0  0  0  0  0  0  0  0
  -12.8559  -23.3828   30.8707 C   0  0  0  0  0  0  0  0  0  0  0  0
  -12.8854  -22.9192   32.1726 C   0  0  0  0  0  0  0  0  0  0  0  0
  -12.1481  -21.7933   32.4348 C   0  0  0  0  0  0  0  0  0  0  0  0
  -12.5012  -20.9935   33.5491 N   0  0  0  0  0  0  0  0  0  0  0  0
  -13.7856  -20.8180   34.0146 C   0  0  0  0  0  0  0  0  0  0  0  0
  -13.8728  -19.7180   34.7332 N   0  0  0  0  0  0  0  0  0  0  0  0
  -12.5920  -19.2571   34.7201 C   0  0  0  0  0  0  0  0  0  0  0  0
  -11.7492  -19.9562   33.9696 N   0  0  0  0  0  0  0  0  0  0  0  0
  -11.3525  -21.2133   31.4984 N   0  0  0  0  0  0  0  0  0  0  0  0
  -11.4482  -21.6515   30.2249 C   0  0  0  0  0  0  0  0  0  0  0  0
   -9.8175  -25.4515   27.6243 H   0  0  0  0  0  0  0  0  0  0  0  0
   -9.8763  -24.4779   29.0174 H   0  0  0  0  0  0  0  0  0  0  0  0
   -9.9829  -23.6833   27.4548 H   0  0  0  0  0  0  0  0  0  0  0  0
  -11.2228  -25.1179   26.2003 H   0  0  0  0  0  0  0  0  0  0  0  0
  -12.8447  -25.1869   26.6923 H   0  0  0  0  0  0  0  0  0  0  0  0
  -12.8316  -27.1299   27.8500 H   0  0  0  0  0  0  0  0  0  0  0  0
  -11.4094  -27.4818   26.8589 H   0  0  0  0  0  0  0  0  0  0  0  0
  -10.0904  -27.2540   28.8278 H   0  0  0  0  0  0  0  0  0  0  0  0
   -9.2828  -27.0553   30.6440 H   0  0  0  0  0  0  0  0  0  0  0  0
  -10.5265  -27.5849   31.7264 H   0  0  0  0  0  0  0  0  0  0  0  0
  -13.4845  -24.2248   30.6388 H   0  0  0  0  0  0  0  0  0  0  0  0
  -13.5165  -23.4140   32.9021 H   0  0  0  0  0  0  0  0  0  0  0  0
  -14.6044  -21.4773   33.7627 H   0  0  0  0  0  0  0  0  0  0  0  0
  -12.2694  -18.3612   35.2353 H   0  0  0  0  0  0  0  0  0  0  0  0
  -10.8988  -21.0985   29.4812 H   0  0  0  0  0  0  0  0  0  0  0  0
  1  2  1  0
  2  3  1  0
  3  4  1  0
  4  5  1  0
  5  6  1  0
  6  7  2  0
  6  8  1  0
  8  9  1  0
  9 10  3  0
  2 11  1  0
 11 12  2  0
 11 13  1  0
 13 14  2  0
 14 15  1  0
 15 16  2  0
 16 17  1  0
 17 18  1  0
 18 19  2  0
 19 20  1  0
 20 21  2  0
 16 22  1  0
 22 23  2  0
 23 13  1  0
 21 17  1  0
  1 24  1  0
  1 25  1  0
  1 26  1  0
  3 27  1  0
  3 28  1  0
  4 29  1  0
  4 30  1  0
  5 31  1  0
  8 32  1  0
  8 33  1  0
 14 34  1  0
 15 35  1  0
 18 36  1  0
 20 37  1  0
 23 38  1  0
M  END
>  <Energy>  (1373) 
195.05752811936287

>  <compound_id>  (1373) 
69285

>  <target_id>  (1373) 
1

>  <reference_id>  (1373) 
82

>  <inspiration_ids>  (1373) 
[82, 54]

>  <energy_score>  (1373) 
76.93963161439777

>  <distance_score>  (1373) 
3.6536128136447137

>  <path>  (1373) 
/opt/xchem-fragalysis-2/maxwin/BulkDock/SCRATCH/511022/C69285-P82/C69285-P82.minimised.mol

>  <scratch_subdir>  (1373) 
/opt/xchem-fragalysis-2/maxwin/BulkDock/SCRATCH/511022/C69285-P82

>  <fragmenstein_runtime>  (1373) 
10.567721605300903

>  <fragmenstein_outcome>  (1373) 
too moved

>  <fragmenstein_mode>  (1373) 
expansion

>  <fragmenstein_error>  (1373) 


$$$$
C69285-P54
     RDKit          3D

 38 39  0  0  0  0  0  0  0  0999 V2000
  -11.4960  -26.2586   25.9035 C   0  0  0  0  0  0  0  0  0  0  0  0
  -11.6577  -26.6072   27.3354 N   0  0  0  0  0  0  0  0  0  0  0  0
  -10.1886  -26.8180   27.2267 C   0  0  0  0  0  0  0  0  0  0  0  0
   -9.5117  -25.4773   27.7058 C   0  0  0  0  0  0  0  0  0  0  0  0
   -9.8346  -25.0639   29.0642 N   0  0  0  0  0  0  0  0  0  0  0  0
   -9.2151  -24.0803   29.9293 C   0  0  0  0  0  0  0  0  0  0  0  0
   -8.3327  -23.3034   29.7174 O   0  0  0  0  0  0  0  0  0  0  0  0
   -9.7851  -24.2018   31.3485 C   0  0  0  0  0  0  0  0  0  0  0  0
   -9.7058  -22.9847   32.1544 C   0  0  0  0  0  0  0  0  0  0  0  0
   -9.6925  -22.0769   32.8769 N   0  0  0  0  0  0  0  0  0  0  0  0
  -12.7251  -27.5376   27.4962 C   0  0  0  0  0  0  0  0  0  0  0  0
  -12.7218  -28.7357   27.4948 O   0  0  0  0  0  0  0  0  0  0  0  0
  -13.9934  -26.7288   27.8097 C   0  0  0  0  0  0  0  0  0  0  0  0
  -13.7844  -26.3990   29.1487 C   0  0  0  0  0  0  0  0  0  0  0  0
  -13.1693  -25.1723   29.3925 C   0  0  0  0  0  0  0  0  0  0  0  0
  -13.0987  -24.2012   28.3982 C   0  0  0  0  0  0  0  0  0  0  0  0
  -12.2883  -23.0560   28.6406 N   0  0  0  0  0  0  0  0  0  0  0  0
  -11.7712  -22.1750   27.7326 C   0  0  0  0  0  0  0  0  0  0  0  0
  -11.1793  -21.1815   28.3547 N   0  0  0  0  0  0  0  0  0  0  0  0
  -11.3403  -21.4938   29.6659 C   0  0  0  0  0  0  0  0  0  0  0  0
  -11.9438  -22.6640   29.8910 N   0  0  0  0  0  0  0  0  0  0  0  0
  -13.7158  -24.3801   27.2057 N   0  0  0  0  0  0  0  0  0  0  0  0
  -14.2336  -25.6268   26.9871 C   0  0  0  0  0  0  0  0  0  0  0  0
  -12.4769  -25.9853   25.5204 H   0  0  0  0  0  0  0  0  0  0  0  0
  -11.2652  -27.1286   25.2722 H   0  0  0  0  0  0  0  0  0  0  0  0
  -10.8929  -25.3710   25.7006 H   0  0  0  0  0  0  0  0  0  0  0  0
  -10.0047  -27.5910   27.9837 H   0  0  0  0  0  0  0  0  0  0  0  0
   -9.7089  -27.2674   26.3400 H   0  0  0  0  0  0  0  0  0  0  0  0
   -8.4312  -25.6158   27.6786 H   0  0  0  0  0  0  0  0  0  0  0  0
   -9.7641  -24.6140   27.0905 H   0  0  0  0  0  0  0  0  0  0  0  0
  -10.4977  -25.6071   29.6025 H   0  0  0  0  0  0  0  0  0  0  0  0
  -10.8137  -24.5578   31.3290 H   0  0  0  0  0  0  0  0  0  0  0  0
   -9.2017  -24.9721   31.8590 H   0  0  0  0  0  0  0  0  0  0  0  0
  -13.6746  -27.1934   29.8884 H   0  0  0  0  0  0  0  0  0  0  0  0
  -12.5938  -25.0593   30.2969 H   0  0  0  0  0  0  0  0  0  0  0  0
  -11.8886  -22.2881   26.6638 H   0  0  0  0  0  0  0  0  0  0  0  0
  -10.9997  -20.8591   30.4770 H   0  0  0  0  0  0  0  0  0  0  0  0
  -14.6974  -25.7643   26.0135 H   0  0  0  0  0  0  0  0  0  0  0  0
  1  2  1  0
  2  3  1  0
  3  4  1  0
  4  5  1  0
  5  6  1  0
  6  7  2  0
  6  8  1  0
  8  9  1  0
  9 10  3  0
  2 11  1  0
 11 12  2  0
 11 13  1  0
 13 14  2  0
 14 15  1  0
 15 16  2  0
 16 17  1  0
 17 18  1  0
 18 19  2  0
 19 20  1  0
 20 21  2  0
 16 22  1  0
 22 23  2  0
 23 13  1  0
 21 17  1  0
  1 24  1  0
  1 25  1  0
  1 26  1  0
  3 27  1  0
  3 28  1  0
  4 29  1  0
  4 30  1  0
  5 31  1  0
  8 32  1  0
  8 33  1  0
 14 34  1  0
 15 35  1  0
 18 36  1  0
 20 37  1  0
 23 38  1  0
M  END
>  <Energy>  (1374) 
214.60064743997469

>  <compound_id>  (1374) 
69285

>  <target_id>  (1374) 
1

>  <reference_id>  (1374) 
54

>  <inspiration_ids>  (1374) 
[82, 54]

>  <energy_score>  (1374) 
96.48275093501002

>  <distance_score>  (1374) 
3.753315787171092

>  <path>  (1374) 
/opt/xchem-fragalysis-2/maxwin/BulkDock/SCRATCH/511022/C69285-P54/C69285-P54.minimised.mol

>  <scratch_subdir>  (1374) 
/opt/xchem-fragalysis-2/maxwin/BulkDock/SCRATCH/511022/C69285-P54

>  <fragmenstein_runtime>  (1374) 
11.798954248428345

>  <fragmenstein_outcome>  (1374) 
too moved

>  <fragmenstein_mode>  (1374) 
expansion

>  <fragmenstein_error>  (1374) 


$$$$
C63927-P187
     RDKit          3D

 44 45  0  0  0  0  0  0  0  0999 V2000
    2.3864   -2.3706   29.6249 C   0  0  0  0  0  0  0  0  0  0  0  0
    1.5987   -3.6102   29.8356 C   0  0  0  0  0  0  0  0  0  0  0  0
    1.8919   -4.7492   30.5598 C   0  0  0  0  0  0  0  0  0  0  0  0
    0.8192   -5.7135   30.5001 C   0  0  0  0  0  0  0  0  0  0  0  0
    0.6946   -6.9202   31.3669 C   0  0  0  0  0  0  0  0  0  0  0  0
    1.2112   -6.8161   32.4425 O   0  0  0  0  0  0  0  0  0  0  0  0
   -0.1173   -7.9902   30.8041 N   0  0  0  0  0  0  0  0  0  0  0  0
   -0.6467   -9.2443   31.4242 C   0  0  0  0  0  0  0  0  0  0  0  0
   -1.9226   -8.6675   32.0466 C   0  0  0  0  0  0  0  0  0  0  0  0
   -0.3173  -11.0105   30.7659 C   0  0  0  0  0  0  0  0  0  0  0  0
    1.3356  -12.2068   31.4488 C   0  0  0  0  0  0  0  0  0  0  0  0
    2.3476  -13.3782   31.8497 N   0  0  0  0  0  0  0  0  0  0  0  0
    2.2198  -14.5006   32.9108 C   0  0  0  0  0  0  0  0  0  0  0  0
    1.3646  -14.6978   33.7444 O   0  0  0  0  0  0  0  0  0  0  0  0
    3.2348  -15.5585   32.8282 C   0  0  0  0  0  0  0  0  0  0  0  0
    2.8465  -16.6141   31.4544 N   0  0  0  0  0  0  0  0  0  0  0  0
    3.3931  -18.0163   31.4987 C   0  0  0  0  0  0  0  0  0  0  0  0
    3.7085  -18.8365   30.4693 C   0  0  0  0  0  0  0  0  0  0  0  0
    3.6782  -18.2306   28.7388 C   0  0  0  0  0  0  0  0  0  0  0  0
    2.8901  -16.9407   28.8231 C   0  0  0  0  0  0  0  0  0  0  0  0
    2.6841  -16.0400   30.0657 C   0  0  0  0  0  0  0  0  0  0  0  0
    2.5054  -14.8906   29.6857 O   0  0  0  0  0  0  0  0  0  0  0  0
   -0.2198   -5.3212   29.7616 N   0  0  0  0  0  0  0  0  0  0  0  0
    0.0250   -3.7746   29.2058 S   0  0  0  0  0  0  0  0  0  0  0  0
    1.8938   -1.5124   30.0935 H   0  0  0  0  0  0  0  0  0  0  0  0
    2.5083   -2.1625   28.5567 H   0  0  0  0  0  0  0  0  0  0  0  0
    3.3855   -2.4650   30.0629 H   0  0  0  0  0  0  0  0  0  0  0  0
    2.7874   -4.8740   31.1544 H   0  0  0  0  0  0  0  0  0  0  0  0
   -0.4579   -7.7029   29.8926 H   0  0  0  0  0  0  0  0  0  0  0  0
   -0.0966   -9.1728   32.3420 H   0  0  0  0  0  0  0  0  0  0  0  0
   -1.7975   -7.5949   32.2664 H   0  0  0  0  0  0  0  0  0  0  0  0
   -2.1202   -9.0457   33.0394 H   0  0  0  0  0  0  0  0  0  0  0  0
   -2.8166   -8.6771   31.4472 H   0  0  0  0  0  0  0  0  0  0  0  0
   -1.2255  -11.4224   30.3812 H   0  0  0  0  0  0  0  0  0  0  0  0
   -0.0303  -10.3982   29.8760 H   0  0  0  0  0  0  0  0  0  0  0  0
    0.8229  -12.8139   32.1772 H   0  0  0  0  0  0  0  0  0  0  0  0
    1.9192  -12.2594   30.5349 H   0  0  0  0  0  0  0  0  0  0  0  0
    3.1288  -13.5599   31.2712 H   0  0  0  0  0  0  0  0  0  0  0  0
    3.1588  -16.1158   33.7416 H   0  0  0  0  0  0  0  0  0  0  0  0
    4.2311  -15.1447   32.9523 H   0  0  0  0  0  0  0  0  0  0  0  0
    3.6976  -18.4414   32.4265 H   0  0  0  0  0  0  0  0  0  0  0  0
    4.0177  -19.8399   30.6623 H   0  0  0  0  0  0  0  0  0  0  0  0
    3.5177  -18.8689   27.8854 H   0  0  0  0  0  0  0  0  0  0  0  0
    2.1156  -16.8558   29.5783 H   0  0  0  0  0  0  0  0  0  0  0  0
  1  2  1  0
  2  3  2  0
  3  4  1  0
  4  5  1  0
  5  6  2  0
  5  7  1  0
  7  8  1  0
  8  9  1  0
  8 10  1  0
 10 11  1  0
 11 12  1  0
 12 13  1  0
 13 14  2  0
 13 15  1  0
 15 16  1  0
 16 17  1  0
 17 18  2  0
 18 19  1  0
 19 20  2  0
 20 21  1  0
 21 22  2  0
  4 23  2  0
 23 24  1  0
 24  2  1  0
 21 16  1  0
  1 25  1  0
  1 26  1  0
  1 27  1  0
  3 28  1  0
  7 29  1  0
  8 30  1  0
  9 31  1  0
  9 32  1  0
  9 33  1  0
 10 34  1  0
 10 35  1  0
 11 36  1  0
 11 37  1  0
 12 38  1  0
 15 39  1  0
 15 40  1  0
 17 41  1  0
 18 42  1  0
 19 43  1  0
 20 44  1  0
M  END
>  <Energy>  (1375) 
560.01097226462309

>  <compound_id>  (1375) 
63927

>  <target_id>  (1375) 
1

>  <reference_id>  (1375) 
187

>  <inspiration_ids>  (1375) 
[187, 89]

>  <energy_score>  (1375) 
475.8957681132771

>  <distance_score>  (1375) 
5.125313712830252

>  <path>  (1375) 
/opt/xchem-fragalysis-2/maxwin/BulkDock/SCRATCH/511022/C63927-P187/C63927-P187.minimised.mol

>  <scratch_subdir>  (1375) 
/opt/xchem-fragalysis-2/maxwin/BulkDock/SCRATCH/511022/C63927-P187

>  <fragmenstein_runtime>  (1375) 
26.817172050476074

>  <fragmenstein_outcome>  (1375) 
too moved

>  <fragmenstein_mode>  (1375) 
expansion

>  <fragmenstein_error>  (1375) 


$$$$
C63929-P187
     RDKit          3D

 35 36  0  0  0  0  0  0  0  0999 V2000
   -3.5436  -13.1337   24.0096 O   0  0  0  0  0  0  0  0  0  0  0  0
   -2.5644  -12.7722   23.3616 C   0  0  0  0  0  0  0  0  0  0  0  0
   -1.7079  -13.8464   22.7669 C   0  0  0  0  0  0  0  0  0  0  0  0
   -0.5106  -13.5576   22.2488 C   0  0  0  0  0  0  0  0  0  0  0  0
   -0.0986  -12.1861   22.1460 C   0  0  0  0  0  0  0  0  0  0  0  0
   -0.9372  -11.1979   22.4938 C   0  0  0  0  0  0  0  0  0  0  0  0
   -2.1777  -11.4404   23.0849 N   0  0  0  0  0  0  0  0  0  0  0  0
   -3.0843  -10.2791   23.4486 C   0  0  0  0  0  0  0  0  0  0  0  0
   -2.4297   -9.0919   24.2405 C   0  0  0  0  0  0  0  0  0  0  0  0
   -3.2719   -7.9486   24.8615 C   0  0  0  0  0  0  0  0  0  0  0  0
   -2.4229   -7.1044   26.1497 C   0  0  0  0  0  0  0  0  0  0  0  0
   -1.9406   -5.3590   26.5193 N   0  0  0  0  0  0  0  0  0  0  0  0
   -1.2811   -4.7923   28.1539 C   0  0  0  0  0  0  0  0  0  0  0  0
   -0.0920   -3.8183   28.2882 C   0  0  0  0  0  0  0  0  0  0  0  0
   -0.2336   -2.3952   28.4823 C   0  0  0  0  0  0  0  0  0  0  0  0
    0.9774   -1.8152   28.7850 C   0  0  0  0  0  0  0  0  0  0  0  0
    2.1635   -3.0370   28.8496 S   0  0  0  0  0  0  0  0  0  0  0  0
    1.1447   -4.2932   28.4979 N   0  0  0  0  0  0  0  0  0  0  0  0
   -2.0893  -14.8564   22.8388 H   0  0  0  0  0  0  0  0  0  0  0  0
    0.1322  -14.3339   21.8512 H   0  0  0  0  0  0  0  0  0  0  0  0
    0.8690  -11.9690   21.7074 H   0  0  0  0  0  0  0  0  0  0  0  0
   -0.6576  -10.1631   22.3421 H   0  0  0  0  0  0  0  0  0  0  0  0
   -3.4783   -9.8936   22.5004 H   0  0  0  0  0  0  0  0  0  0  0  0
   -3.9387  -10.6754   24.0024 H   0  0  0  0  0  0  0  0  0  0  0  0
   -1.9224   -9.5149   25.0829 H   0  0  0  0  0  0  0  0  0  0  0  0
   -1.6850   -8.6559   23.5710 H   0  0  0  0  0  0  0  0  0  0  0  0
   -3.5597   -7.2687   24.0441 H   0  0  0  0  0  0  0  0  0  0  0  0
   -4.2234   -8.3155   25.2486 H   0  0  0  0  0  0  0  0  0  0  0  0
   -3.1861   -7.1863   26.8899 H   0  0  0  0  0  0  0  0  0  0  0  0
   -2.1730   -6.6267   25.2203 H   0  0  0  0  0  0  0  0  0  0  0  0
   -1.0597   -5.3302   26.0141 H   0  0  0  0  0  0  0  0  0  0  0  0
   -1.0642   -5.6682   28.7822 H   0  0  0  0  0  0  0  0  0  0  0  0
   -1.9700   -4.1882   28.7390 H   0  0  0  0  0  0  0  0  0  0  0  0
   -1.1683   -1.8551   28.3845 H   0  0  0  0  0  0  0  0  0  0  0  0
    1.2069   -0.7742   28.9609 H   0  0  0  0  0  0  0  0  0  0  0  0
  1  2  2  0
  2  3  1  0
  3  4  2  0
  4  5  1  0
  5  6  2  0
  6  7  1  0
  7  8  1  0
  8  9  1  0
  9 10  1  0
 10 11  1  0
 11 12  1  0
 12 13  1  0
 13 14  1  0
 14 15  1  0
 15 16  2  0
 16 17  1  0
 17 18  1  0
  7  2  1  0
 18 14  2  0
  3 19  1  0
  4 20  1  0
  5 21  1  0
  6 22  1  0
  8 23  1  0
  8 24  1  0
  9 25  1  0
  9 26  1  0
 10 27  1  0
 10 28  1  0
 11 29  1  0
 11 30  1  0
 12 31  1  0
 13 32  1  0
 13 33  1  0
 15 34  1  0
 16 35  1  0
M  END
>  <Energy>  (1376) 
202.23648592481965

>  <compound_id>  (1376) 
63929

>  <target_id>  (1376) 
1

>  <reference_id>  (1376) 
187

>  <inspiration_ids>  (1376) 
[187, 89]

>  <energy_score>  (1376) 
151.25568948334262

>  <distance_score>  (1376) 
9.410265822333905

>  <path>  (1376) 
/opt/xchem-fragalysis-2/maxwin/BulkDock/SCRATCH/511022/C63929-P187/C63929-P187.minimised.mol

>  <scratch_subdir>  (1376) 
/opt/xchem-fragalysis-2/maxwin/BulkDock/SCRATCH/511022/C63929-P187

>  <fragmenstein_runtime>  (1376) 
12.482789039611816

>  <fragmenstein_outcome>  (1376) 
too moved

>  <fragmenstein_mode>  (1376) 
expansion

>  <fragmenstein_error>  (1376) 


$$$$
C63938-P187
     RDKit          3D

 36 39  0  0  0  0  0  0  0  0999 V2000
    0.1666   -9.8891   28.0702 O   0  0  0  0  0  0  0  0  0  0  0  0
    0.8014   -9.9181   29.0367 C   0  0  0  0  0  0  0  0  0  0  0  0
    2.1735  -11.3758   29.3455 N   0  0  0  0  0  0  0  0  0  0  0  0
    2.8312  -12.8665   28.1681 C   0  0  0  0  0  0  0  0  0  0  0  0
    2.8520  -13.6307   26.5871 C   0  0  0  0  0  0  0  0  0  0  0  0
    1.9798  -14.3755   25.9611 N   0  0  0  0  0  0  0  0  0  0  0  0
    2.0809  -15.5233   27.0391 S   0  0  0  0  0  0  0  0  0  0  0  0
    2.5664  -14.4233   28.4254 C   0  0  0  0  0  0  0  0  0  0  0  0
    0.8171   -8.9146   30.0898 N   0  0  0  0  0  0  0  0  0  0  0  0
    0.2137   -7.7033   30.1921 C   0  0  0  0  0  0  0  0  0  0  0  0
   -0.5624   -7.3546   31.3100 C   0  0  0  0  0  0  0  0  0  0  0  0
   -0.2692   -6.0268   31.5481 C   0  0  0  0  0  0  0  0  0  0  0  0
   -0.3798   -5.2520   32.7695 C   0  0  0  0  0  0  0  0  0  0  0  0
   -0.4647   -3.8556   32.7692 C   0  0  0  0  0  0  0  0  0  0  0  0
   -0.5097   -3.1434   33.9804 C   0  0  0  0  0  0  0  0  0  0  0  0
   -0.4777   -3.8093   35.2080 C   0  0  0  0  0  0  0  0  0  0  0  0
   -0.4096   -5.1871   35.2005 C   0  0  0  0  0  0  0  0  0  0  0  0
   -0.3468   -5.8871   34.0075 C   0  0  0  0  0  0  0  0  0  0  0  0
   -0.2017   -7.2439   34.2088 O   0  0  0  0  0  0  0  0  0  0  0  0
   -0.6448   -7.4234   35.5733 C   0  0  0  0  0  0  0  0  0  0  0  0
   -0.3414   -6.1376   36.3314 C   0  0  0  0  0  0  0  0  0  0  0  0
    0.3882   -5.6088   30.4252 N   0  0  0  0  0  0  0  0  0  0  0  0
    0.8264   -6.6338   29.6773 N   0  0  0  0  0  0  0  0  0  0  0  0
    2.5654  -11.2881   30.2711 H   0  0  0  0  0  0  0  0  0  0  0  0
    3.7813  -13.7234   26.0018 H   0  0  0  0  0  0  0  0  0  0  0  0
    2.5170  -14.9853   29.3287 H   0  0  0  0  0  0  0  0  0  0  0  0
    1.4809   -9.1512   30.7169 H   0  0  0  0  0  0  0  0  0  0  0  0
   -1.0326   -8.0371   32.0072 H   0  0  0  0  0  0  0  0  0  0  0  0
   -0.5113   -3.2925   31.8409 H   0  0  0  0  0  0  0  0  0  0  0  0
   -0.5892   -2.0585   33.9622 H   0  0  0  0  0  0  0  0  0  0  0  0
   -0.5264   -3.2542   36.1389 H   0  0  0  0  0  0  0  0  0  0  0  0
   -0.1296   -8.2773   36.0170 H   0  0  0  0  0  0  0  0  0  0  0  0
   -1.7186   -7.6439   35.5479 H   0  0  0  0  0  0  0  0  0  0  0  0
   -1.0649   -5.9384   37.1235 H   0  0  0  0  0  0  0  0  0  0  0  0
    0.6720   -6.1527   36.7455 H   0  0  0  0  0  0  0  0  0  0  0  0
    0.7172   -4.6749   30.2031 H   0  0  0  0  0  0  0  0  0  0  0  0
  1  2  2  0
  2  3  1  0
  3  4  1  0
  4  5  1  0
  5  6  2  0
  6  7  1  0
  7  8  1  0
  2  9  1  0
  9 10  1  0
 10 11  1  0
 11 12  2  0
 12 13  1  0
 13 14  2  0
 14 15  1  0
 15 16  2  0
 16 17  1  0
 17 18  2  0
 18 19  1  0
 19 20  1  0
 20 21  1  0
 12 22  1  0
 22 23  1  0
  8  4  2  0
 23 10  2  0
 18 13  1  0
 21 17  1  0
  3 24  1  0
  5 25  1  0
  8 26  1  0
  9 27  1  0
 11 28  1  0
 14 29  1  0
 15 30  1  0
 16 31  1  0
 20 32  1  0
 20 33  1  0
 21 34  1  0
 21 35  1  0
 22 36  1  0
M  END
>  <Energy>  (1377) 
438.02234994717656

>  <compound_id>  (1377) 
63938

>  <target_id>  (1377) 
1

>  <reference_id>  (1377) 
187

>  <inspiration_ids>  (1377) 
[187, 89]

>  <energy_score>  (1377) 
422.71137729458496

>  <distance_score>  (1377) 
5.680375509056861

>  <path>  (1377) 
/opt/xchem-fragalysis-2/maxwin/BulkDock/SCRATCH/511022/C63938-P187/C63938-P187.minimised.mol

>  <scratch_subdir>  (1377) 
/opt/xchem-fragalysis-2/maxwin/BulkDock/SCRATCH/511022/C63938-P187

>  <fragmenstein_runtime>  (1377) 
13.432704210281372

>  <fragmenstein_outcome>  (1377) 
too moved

>  <fragmenstein_mode>  (1377) 
expansion

>  <fragmenstein_error>  (1377) 


$$$$
C63939-P187
     RDKit          3D

 33 34  0  0  0  0  0  0  0  0999 V2000
    0.3470   -7.6488   29.6540 O   0  0  0  0  0  0  0  0  0  0  0  0
    0.1834   -8.7901   30.1023 C   0  0  0  0  0  0  0  0  0  0  0  0
    0.9418   -9.9667   29.3579 C   0  0  0  0  0  0  0  0  0  0  0  0
    2.3364  -11.5564   29.7560 C   0  0  0  0  0  0  0  0  0  0  0  0
    2.6101  -13.2656   30.4431 N   0  0  0  0  0  0  0  0  0  0  0  0
    2.5840  -14.5662   29.3397 C   0  0  0  0  0  0  0  0  0  0  0  0
    2.4668  -15.8415   29.8077 C   0  0  0  0  0  0  0  0  0  0  0  0
    2.5370  -16.1839   31.2878 C   0  0  0  0  0  0  0  0  0  0  0  0
    2.7394  -15.2257   32.2754 C   0  0  0  0  0  0  0  0  0  0  0  0
    2.8809  -13.6270   31.8681 C   0  0  0  0  0  0  0  0  0  0  0  0
    3.4923  -12.9203   32.6512 O   0  0  0  0  0  0  0  0  0  0  0  0
   -0.6485   -9.0168   31.1314 O   0  0  0  0  0  0  0  0  0  0  0  0
   -1.1813   -7.8088   31.7356 C   0  0  0  0  0  0  0  0  0  0  0  0
   -0.1185   -6.9349   32.4331 C   0  0  0  0  0  0  0  0  0  0  0  0
   -0.2755   -5.4592   32.2336 C   0  0  0  0  0  0  0  0  0  0  0  0
   -0.6779   -4.4817   33.1223 C   0  0  0  0  0  0  0  0  0  0  0  0
   -0.6303   -3.1995   32.5088 C   0  0  0  0  0  0  0  0  0  0  0  0
   -0.2074   -3.1520   31.2516 N   0  0  0  0  0  0  0  0  0  0  0  0
    0.1837   -4.6850   30.7714 S   0  0  0  0  0  0  0  0  0  0  0  0
    1.7147   -9.1841   29.1497 H   0  0  0  0  0  0  0  0  0  0  0  0
    0.3575   -9.9265   28.4276 H   0  0  0  0  0  0  0  0  0  0  0  0
    2.8048  -11.4257   30.7141 H   0  0  0  0  0  0  0  0  0  0  0  0
    3.1542  -11.6651   29.0858 H   0  0  0  0  0  0  0  0  0  0  0  0
    2.5958  -14.3277   28.2713 H   0  0  0  0  0  0  0  0  0  0  0  0
    2.6191  -16.5823   29.0614 H   0  0  0  0  0  0  0  0  0  0  0  0
    2.7785  -17.2344   31.4328 H   0  0  0  0  0  0  0  0  0  0  0  0
    2.9991  -15.4248   33.3078 H   0  0  0  0  0  0  0  0  0  0  0  0
   -1.7333   -7.2626   30.9698 H   0  0  0  0  0  0  0  0  0  0  0  0
   -1.9191   -8.1336   32.4749 H   0  0  0  0  0  0  0  0  0  0  0  0
   -0.1616   -7.1508   33.5091 H   0  0  0  0  0  0  0  0  0  0  0  0
    0.8945   -7.2198   32.1351 H   0  0  0  0  0  0  0  0  0  0  0  0
   -0.9844   -4.6634   34.1438 H   0  0  0  0  0  0  0  0  0  0  0  0
   -0.9049   -2.2625   32.9768 H   0  0  0  0  0  0  0  0  0  0  0  0
  1  2  2  0
  2  3  1  0
  3  4  1  0
  4  5  1  0
  5  6  1  0
  6  7  2  0
  7  8  1  0
  8  9  2  0
  9 10  1  0
 10 11  2  0
  2 12  1  0
 12 13  1  0
 13 14  1  0
 14 15  1  0
 15 16  2  0
 16 17  1  0
 17 18  2  0
 18 19  1  0
 10  5  1  0
 19 15  1  0
  3 20  1  0
  3 21  1  0
  4 22  1  0
  4 23  1  0
  6 24  1  0
  7 25  1  0
  8 26  1  0
  9 27  1  0
 13 28  1  0
 13 29  1  0
 14 30  1  0
 14 31  1  0
 16 32  1  0
 17 33  1  0
M  END
>  <Energy>  (1378) 
291.89426579565048

>  <compound_id>  (1378) 
63939

>  <target_id>  (1378) 
1

>  <reference_id>  (1378) 
187

>  <inspiration_ids>  (1378) 
[187, 89]

>  <energy_score>  (1378) 
259.6721189442874

>  <distance_score>  (1378) 
6.432768235440782

>  <path>  (1378) 
/opt/xchem-fragalysis-2/maxwin/BulkDock/SCRATCH/511022/C63939-P187/C63939-P187.minimised.mol

>  <scratch_subdir>  (1378) 
/opt/xchem-fragalysis-2/maxwin/BulkDock/SCRATCH/511022/C63939-P187

>  <fragmenstein_runtime>  (1378) 
12.810222148895264

>  <fragmenstein_outcome>  (1378) 
too moved

>  <fragmenstein_mode>  (1378) 
expansion

>  <fragmenstein_error>  (1378) 


$$$$
C63940-P187
     RDKit          3D

 31 32  0  0  0  0  0  0  0  0999 V2000
    0.2833   -7.3467   33.4561 N   0  0  0  0  0  0  0  0  0  0  0  0
   -1.0960   -7.4962   32.4833 S   0  0  0  0  0  0  0  0  0  0  0  0
   -1.3695   -6.1156   32.1301 O   0  0  0  0  0  0  0  0  0  0  0  0
   -2.0256   -8.2418   33.2785 O   0  0  0  0  0  0  0  0  0  0  0  0
   -0.6760   -8.3651   30.9882 C   0  0  0  0  0  0  0  0  0  0  0  0
    0.3524   -7.1902   30.1915 S   0  0  0  0  0  0  0  0  0  0  0  0
    0.8131   -8.1745   28.9783 N   0  0  0  0  0  0  0  0  0  0  0  0
   -0.0799   -9.1474   28.9765 C   0  0  0  0  0  0  0  0  0  0  0  0
   -0.7853   -9.5223   30.1325 C   0  0  0  0  0  0  0  0  0  0  0  0
   -1.3544  -10.8635   30.2145 N   0  0  0  0  0  0  0  0  0  0  0  0
   -2.2869  -12.0975   29.2095 C   0  0  0  0  0  0  0  0  0  0  0  0
   -1.9176  -13.9585   28.8984 C   0  0  0  0  0  0  0  0  0  0  0  0
   -2.4286  -15.2279   29.6581 N   0  0  0  0  0  0  0  0  0  0  0  0
   -2.6208  -15.3111   31.0275 C   0  0  0  0  0  0  0  0  0  0  0  0
   -3.3660  -16.2701   31.5851 C   0  0  0  0  0  0  0  0  0  0  0  0
   -4.0968  -17.1586   30.7313 C   0  0  0  0  0  0  0  0  0  0  0  0
   -3.7479  -17.2623   29.4412 C   0  0  0  0  0  0  0  0  0  0  0  0
   -2.6450  -16.4111   28.9052 C   0  0  0  0  0  0  0  0  0  0  0  0
   -2.1736  -16.6943   27.8104 O   0  0  0  0  0  0  0  0  0  0  0  0
    0.0141   -7.6527   34.3947 H   0  0  0  0  0  0  0  0  0  0  0  0
    0.5277   -6.3516   33.4720 H   0  0  0  0  0  0  0  0  0  0  0  0
   -0.1599   -9.6716   28.0672 H   0  0  0  0  0  0  0  0  0  0  0  0
   -0.8664  -11.4369   30.9289 H   0  0  0  0  0  0  0  0  0  0  0  0
   -2.3568  -11.6507   28.2206 H   0  0  0  0  0  0  0  0  0  0  0  0
   -3.3171  -12.0935   29.5437 H   0  0  0  0  0  0  0  0  0  0  0  0
   -0.9675  -14.3731   28.6920 H   0  0  0  0  0  0  0  0  0  0  0  0
   -2.0892  -14.0395   27.7943 H   0  0  0  0  0  0  0  0  0  0  0  0
   -2.1853  -14.5683   31.6602 H   0  0  0  0  0  0  0  0  0  0  0  0
   -3.5237  -16.3154   32.6565 H   0  0  0  0  0  0  0  0  0  0  0  0
   -4.9024  -17.7516   31.1487 H   0  0  0  0  0  0  0  0  0  0  0  0
   -4.2290  -17.9325   28.7417 H   0  0  0  0  0  0  0  0  0  0  0  0
  1  2  1  0
  2  3  2  0
  2  4  2  0
  2  5  1  0
  5  6  1  0
  6  7  1  0
  7  8  2  0
  8  9  1  0
  9 10  1  0
 10 11  1  0
 11 12  1  0
 12 13  1  0
 13 14  1  0
 14 15  2  0
 15 16  1  0
 16 17  2  0
 17 18  1  0
 18 19  2  0
  9  5  2  0
 18 13  1  0
  1 20  1  0
  1 21  1  0
  8 22  1  0
 10 23  1  0
 11 24  1  0
 11 25  1  0
 12 26  1  0
 12 27  1  0
 14 28  1  0
 15 29  1  0
 16 30  1  0
 17 31  1  0
M  END
>  <Energy>  (1379) 
135.14880211987244

>  <compound_id>  (1379) 
63940

>  <target_id>  (1379) 
1

>  <reference_id>  (1379) 
187

>  <inspiration_ids>  (1379) 
[187, 89]

>  <energy_score>  (1379) 
129.22345322414367

>  <distance_score>  (1379) 
8.0509470471761

>  <path>  (1379) 
/opt/xchem-fragalysis-2/maxwin/BulkDock/SCRATCH/511022/C63940-P187/C63940-P187.minimised.mol

>  <scratch_subdir>  (1379) 
/opt/xchem-fragalysis-2/maxwin/BulkDock/SCRATCH/511022/C63940-P187

>  <fragmenstein_runtime>  (1379) 
14.600999355316162

>  <fragmenstein_outcome>  (1379) 
too moved

>  <fragmenstein_mode>  (1379) 
expansion

>  <fragmenstein_error>  (1379) 


$$$$
C63946-P187
     RDKit          3D

 41 42  0  0  0  0  0  0  0  0999 V2000
   -1.3019   -7.8139   31.6492 C   0  0  0  0  0  0  0  0  0  0  0  0
   -0.5232   -8.4000   30.5283 C   0  0  0  0  0  0  0  0  0  0  0  0
   -0.4462   -9.7040   30.0789 C   0  0  0  0  0  0  0  0  0  0  0  0
    0.9125   -9.9755   29.3697 C   0  0  0  0  0  0  0  0  0  0  0  0
    2.2739  -11.4792   29.7501 C   0  0  0  0  0  0  0  0  0  0  0  0
    3.1384  -11.5508   29.0240 O   0  0  0  0  0  0  0  0  0  0  0  0
    2.1334  -12.5463   30.9411 N   0  0  0  0  0  0  0  0  0  0  0  0
    2.9400  -13.8146   31.2803 C   0  0  0  0  0  0  0  0  0  0  0  0
    2.6413  -14.7326   29.5236 C   0  0  0  0  0  0  0  0  0  0  0  0
    2.7801  -15.4681   32.2883 C   0  0  0  0  0  0  0  0  0  0  0  0
    3.0041  -16.9611   31.5098 N   0  0  0  0  0  0  0  0  0  0  0  0
    4.0408  -18.1225   31.7867 C   0  0  0  0  0  0  0  0  0  0  0  0
    4.8628  -18.2492   32.6790 O   0  0  0  0  0  0  0  0  0  0  0  0
    4.1515  -19.3366   30.6323 C   0  0  0  0  0  0  0  0  0  0  0  0
    4.3072  -20.8508   29.8941 N   0  0  0  0  0  0  0  0  0  0  0  0
    4.3898  -22.5862   28.4175 C   0  0  0  0  0  0  0  0  0  0  0  0
    3.3568  -23.6307   28.0136 C   0  0  0  0  0  0  0  0  0  0  0  0
    1.9211  -23.1621   27.9724 C   0  0  0  0  0  0  0  0  0  0  0  0
    1.4952  -21.7963   28.6886 C   0  0  0  0  0  0  0  0  0  0  0  0
    2.4728  -20.8429   30.3613 C   0  0  0  0  0  0  0  0  0  0  0  0
    2.1242  -19.7720   30.8100 O   0  0  0  0  0  0  0  0  0  0  0  0
    1.3243   -8.7899   28.8254 N   0  0  0  0  0  0  0  0  0  0  0  0
    0.5938   -7.5042   29.6654 S   0  0  0  0  0  0  0  0  0  0  0  0
   -2.3086   -8.2315   31.7004 H   0  0  0  0  0  0  0  0  0  0  0  0
   -1.3853   -6.7269   31.5640 H   0  0  0  0  0  0  0  0  0  0  0  0
   -0.8052   -8.0334   32.6004 H   0  0  0  0  0  0  0  0  0  0  0  0
   -0.9901  -10.5052   30.5510 H   0  0  0  0  0  0  0  0  0  0  0  0
    1.3681  -12.2697   31.5122 H   0  0  0  0  0  0  0  0  0  0  0  0
    2.5271  -13.6450   32.2537 H   0  0  0  0  0  0  0  0  0  0  0  0
    1.6614  -15.1917   29.3294 H   0  0  0  0  0  0  0  0  0  0  0  0
    2.9378  -15.7461   29.5421 H   0  0  0  0  0  0  0  0  0  0  0  0
    2.7795  -14.1562   28.6108 H   0  0  0  0  0  0  0  0  0  0  0  0
    1.8376  -15.4793   32.8350 H   0  0  0  0  0  0  0  0  0  0  0  0
    3.5523  -15.4142   33.0719 H   0  0  0  0  0  0  0  0  0  0  0  0
    2.5372  -17.1330   30.6479 H   0  0  0  0  0  0  0  0  0  0  0  0
    4.2096  -19.9112   31.5692 H   0  0  0  0  0  0  0  0  0  0  0  0
    5.1282  -18.9572   30.3729 H   0  0  0  0  0  0  0  0  0  0  0  0
    5.1587  -23.5037   28.4717 H   0  0  0  0  0  0  0  0  0  0  0  0
    3.6310  -24.5174   27.4526 H   0  0  0  0  0  0  0  0  0  0  0  0
    1.3544  -23.6123   27.1599 H   0  0  0  0  0  0  0  0  0  0  0  0
    0.5301  -21.3472   28.6234 H   0  0  0  0  0  0  0  0  0  0  0  0
  1  2  1  0
  2  3  2  0
  3  4  1  0
  4  5  1  0
  5  6  2  0
  5  7  1  0
  7  8  1  0
  8  9  1  0
  8 10  1  0
 10 11  1  0
 11 12  1  0
 12 13  2  0
 12 14  1  0
 14 15  1  0
 15 16  1  0
 16 17  2  0
 17 18  1  0
 18 19  2  0
 19 20  1  0
 20 21  2  0
  4 22  2  0
 22 23  1  0
 23  2  1  0
 20 15  1  0
  1 24  1  0
  1 25  1  0
  1 26  1  0
  3 27  1  0
  7 28  1  0
  8 29  1  0
  9 30  1  0
  9 31  1  0
  9 32  1  0
 10 33  1  0
 10 34  1  0
 11 35  1  0
 14 36  1  0
 14 37  1  0
 16 38  1  0
 17 39  1  0
 18 40  1  0
 19 41  1  0
M  END
>  <Energy>  (1380) 
1323.023192404165

>  <compound_id>  (1380) 
63946

>  <target_id>  (1380) 
1

>  <reference_id>  (1380) 
187

>  <inspiration_ids>  (1380) 
[187, 89]

>  <energy_score>  (1380) 
1240.8849139572762

>  <distance_score>  (1380) 
6.871019969987663

>  <path>  (1380) 
/opt/xchem-fragalysis-2/maxwin/BulkDock/SCRATCH/511022/C63946-P187/C63946-P187.minimised.mol

>  <scratch_subdir>  (1380) 
/opt/xchem-fragalysis-2/maxwin/BulkDock/SCRATCH/511022/C63946-P187

>  <fragmenstein_runtime>  (1380) 
19.87086796760559

>  <fragmenstein_outcome>  (1380) 
too moved

>  <fragmenstein_mode>  (1380) 
expansion

>  <fragmenstein_error>  (1380) 


$$$$
C63947-P187
     RDKit          3D

 44 45  0  0  0  0  0  0  0  0999 V2000
    1.5976   -7.0839   29.4634 C   0  0  0  0  0  0  0  0  0  0  0  0
    0.8794   -8.7833   29.9317 C   0  0  0  0  0  0  0  0  0  0  0  0
   -0.2680   -8.3733   29.4104 N   0  0  0  0  0  0  0  0  0  0  0  0
    1.3656   -9.5352   29.3369 C   0  0  0  0  0  0  0  0  0  0  0  0
    2.4026  -11.5233   29.4094 C   0  0  0  0  0  0  0  0  0  0  0  0
    2.8285  -13.2885   28.3669 N   0  0  0  0  0  0  0  0  0  0  0  0
    2.6292  -15.0841   28.8669 C   0  0  0  0  0  0  0  0  0  0  0  0
    2.2938  -15.3153   29.9628 O   0  0  0  0  0  0  0  0  0  0  0  0
    2.7264  -16.7275   27.9083 C   0  0  0  0  0  0  0  0  0  0  0  0
    3.3411  -18.6837   28.0424 N   0  0  0  0  0  0  0  0  0  0  0  0
    3.6251  -19.3450   29.7886 C   0  0  0  0  0  0  0  0  0  0  0  0
    4.3076  -20.7300   29.9090 C   0  0  0  0  0  0  0  0  0  0  0  0
    4.3813  -22.4505   28.2776 C   0  0  0  0  0  0  0  0  0  0  0  0
    3.9811  -21.7117   26.8039 C   0  0  0  0  0  0  0  0  0  0  0  0
    3.4449  -19.7666   26.4949 C   0  0  0  0  0  0  0  0  0  0  0  0
    3.0786  -19.3796   25.3934 O   0  0  0  0  0  0  0  0  0  0  0  0
   -0.8767   -7.3697   30.3987 C   0  0  0  0  0  0  0  0  0  0  0  0
   -1.6476   -7.8017   31.2527 O   0  0  0  0  0  0  0  0  0  0  0  0
   -0.5417   -5.8595   30.5455 C   0  0  0  0  0  0  0  0  0  0  0  0
   -0.5571   -4.7265   29.6234 C   0  0  0  0  0  0  0  0  0  0  0  0
   -0.2642   -3.5229   30.2307 C   0  0  0  0  0  0  0  0  0  0  0  0
   -0.2403   -2.1491   29.6695 C   0  0  0  0  0  0  0  0  0  0  0  0
    0.0466   -3.8372   31.8664 S   0  0  0  0  0  0  0  0  0  0  0  0
   -0.1958   -5.4674   31.7873 N   0  0  0  0  0  0  0  0  0  0  0  0
    0.9712   -6.3956   28.9451 H   0  0  0  0  0  0  0  0  0  0  0  0
    1.9045   -6.5186   30.3634 H   0  0  0  0  0  0  0  0  0  0  0  0
    2.4644   -7.1587   28.7968 H   0  0  0  0  0  0  0  0  0  0  0  0
    0.1346   -9.1682   30.7584 H   0  0  0  0  0  0  0  0  0  0  0  0
    1.0565   -8.2580   30.9451 H   0  0  0  0  0  0  0  0  0  0  0  0
    1.8349   -8.9665   28.3766 H   0  0  0  0  0  0  0  0  0  0  0  0
    0.5429  -10.0306   28.6623 H   0  0  0  0  0  0  0  0  0  0  0  0
    3.4203  -11.4317   29.2570 H   0  0  0  0  0  0  0  0  0  0  0  0
    2.4200  -12.0096   30.4182 H   0  0  0  0  0  0  0  0  0  0  0  0
    3.0382  -13.2503   27.3705 H   0  0  0  0  0  0  0  0  0  0  0  0
    2.6553  -16.9429   28.9523 H   0  0  0  0  0  0  0  0  0  0  0  0
    2.1422  -16.6507   26.9788 H   0  0  0  0  0  0  0  0  0  0  0  0
    3.5316  -18.6875   30.6702 H   0  0  0  0  0  0  0  0  0  0  0  0
    4.1052  -20.7921   30.9993 H   0  0  0  0  0  0  0  0  0  0  0  0
    4.1892  -23.5656   28.3961 H   0  0  0  0  0  0  0  0  0  0  0  0
    5.1318  -21.5008   26.6036 H   0  0  0  0  0  0  0  0  0  0  0  0
   -0.8706   -4.7524   28.5941 H   0  0  0  0  0  0  0  0  0  0  0  0
   -0.9793   -1.5127   30.1674 H   0  0  0  0  0  0  0  0  0  0  0  0
    0.7491   -1.6965   29.7908 H   0  0  0  0  0  0  0  0  0  0  0  0
   -0.4751   -2.1595   28.6001 H   0  0  0  0  0  0  0  0  0  0  0  0
  1  2  1  0
  2  3  1  0
  3  4  1  0
  4  5  1  0
  5  6  1  0
  6  7  1  0
  7  8  2  0
  7  9  1  0
  9 10  1  0
 10 11  1  0
 11 12  2  0
 12 13  1  0
 13 14  2  0
 14 15  1  0
 15 16  2  0
  3 17  1  0
 17 18  2  0
 17 19  1  0
 19 20  1  0
 20 21  2  0
 21 22  1  0
 21 23  1  0
 23 24  1  0
 15 10  1  0
 24 19  2  0
  1 25  1  0
  1 26  1  0
  1 27  1  0
  2 28  1  0
  2 29  1  0
  4 30  1  0
  4 31  1  0
  5 32  1  0
  5 33  1  0
  6 34  1  0
  9 35  1  0
  9 36  1  0
 11 37  1  0
 12 38  1  0
 13 39  1  0
 14 40  1  0
 20 41  1  0
 22 42  1  0
 22 43  1  0
 22 44  1  0
M  END
>  <Energy>  (1381) 
2077.2623109655656

>  <compound_id>  (1381) 
63947

>  <target_id>  (1381) 
1

>  <reference_id>  (1381) 
187

>  <inspiration_ids>  (1381) 
[187, 89]

>  <energy_score>  (1381) 
1973.5537692342127

>  <distance_score>  (1381) 
4.522114853245024

>  <path>  (1381) 
/opt/xchem-fragalysis-2/maxwin/BulkDock/SCRATCH/511022/C63947-P187/C63947-P187.minimised.mol

>  <scratch_subdir>  (1381) 
/opt/xchem-fragalysis-2/maxwin/BulkDock/SCRATCH/511022/C63947-P187

>  <fragmenstein_runtime>  (1381) 
23.214237451553345

>  <fragmenstein_outcome>  (1381) 
too moved

>  <fragmenstein_mode>  (1381) 
expansion

>  <fragmenstein_error>  (1381) 


$$$$
C63949-P187
     RDKit          3D

 38 39  0  0  0  0  0  0  0  0999 V2000
    2.9807   -2.2341   28.4261 C   0  0  0  0  0  0  0  0  0  0  0  0
    2.7473   -3.6315   28.5934 O   0  0  0  0  0  0  0  0  0  0  0  0
    1.8185   -3.9328   29.5312 C   0  0  0  0  0  0  0  0  0  0  0  0
    1.4215   -5.2673   29.7980 C   0  0  0  0  0  0  0  0  0  0  0  0
    0.4470   -5.3106   30.7747 C   0  0  0  0  0  0  0  0  0  0  0  0
   -0.2710   -6.3722   31.3793 C   0  0  0  0  0  0  0  0  0  0  0  0
   -0.2335   -7.6603   30.9771 C   0  0  0  0  0  0  0  0  0  0  0  0
   -1.0544   -8.5954   31.7618 C   0  0  0  0  0  0  0  0  0  0  0  0
   -1.7596   -8.1627   32.6672 O   0  0  0  0  0  0  0  0  0  0  0  0
   -1.0535   -9.9055   31.4727 O   0  0  0  0  0  0  0  0  0  0  0  0
   -0.3702  -10.9705   30.5979 C   0  0  0  0  0  0  0  0  0  0  0  0
    1.1258  -12.2622   31.2353 C   0  0  0  0  0  0  0  0  0  0  0  0
    2.6120  -12.4609   30.7141 C   0  0  0  0  0  0  0  0  0  0  0  0
    2.8009  -13.8546   30.7323 N   0  0  0  0  0  0  0  0  0  0  0  0
    2.6095  -14.8150   29.4454 C   0  0  0  0  0  0  0  0  0  0  0  0
    2.4381  -16.0812   29.8048 C   0  0  0  0  0  0  0  0  0  0  0  0
    2.5398  -16.5742   31.1710 C   0  0  0  0  0  0  0  0  0  0  0  0
    2.7567  -15.8113   32.2656 C   0  0  0  0  0  0  0  0  0  0  0  0
    2.9525  -14.3997   32.2089 C   0  0  0  0  0  0  0  0  0  0  0  0
    3.4377  -13.8845   33.2077 O   0  0  0  0  0  0  0  0  0  0  0  0
    0.1584   -3.6752   31.2763 S   0  0  0  0  0  0  0  0  0  0  0  0
    1.2566   -2.9760   30.2553 N   0  0  0  0  0  0  0  0  0  0  0  0
    3.4090   -1.7932   29.3330 H   0  0  0  0  0  0  0  0  0  0  0  0
    2.0681   -1.7081   28.1248 H   0  0  0  0  0  0  0  0  0  0  0  0
    3.7132   -2.1148   27.6217 H   0  0  0  0  0  0  0  0  0  0  0  0
    1.8266   -6.1236   29.2859 H   0  0  0  0  0  0  0  0  0  0  0  0
   -0.8882   -6.1003   32.2389 H   0  0  0  0  0  0  0  0  0  0  0  0
    0.3365   -8.0309   30.1448 H   0  0  0  0  0  0  0  0  0  0  0  0
   -0.0419  -10.2222   29.8323 H   0  0  0  0  0  0  0  0  0  0  0  0
   -1.2412  -11.4418   30.1681 H   0  0  0  0  0  0  0  0  0  0  0  0
    0.8182  -12.8987   32.1108 H   0  0  0  0  0  0  0  0  0  0  0  0
    1.7000  -11.9773   32.0317 H   0  0  0  0  0  0  0  0  0  0  0  0
    2.8746  -11.9775   29.7806 H   0  0  0  0  0  0  0  0  0  0  0  0
    3.3199  -12.1372   31.4853 H   0  0  0  0  0  0  0  0  0  0  0  0
    2.6017  -14.4392   28.4278 H   0  0  0  0  0  0  0  0  0  0  0  0
    2.6420  -16.6965   28.9549 H   0  0  0  0  0  0  0  0  0  0  0  0
    2.8287  -17.6243   31.2759 H   0  0  0  0  0  0  0  0  0  0  0  0
    3.1205  -16.1508   33.2226 H   0  0  0  0  0  0  0  0  0  0  0  0
  1  2  1  0
  2  3  1  0
  3  4  1  0
  4  5  2  0
  5  6  1  0
  6  7  2  3
  7  8  1  0
  8  9  2  0
  8 10  1  0
 10 11  1  0
 11 12  1  0
 12 13  1  0
 13 14  1  0
 14 15  1  0
 15 16  2  0
 16 17  1  0
 17 18  2  0
 18 19  1  0
 19 20  2  0
  5 21  1  0
 21 22  1  0
 22  3  2  0
 19 14  1  0
  1 23  1  0
  1 24  1  0
  1 25  1  0
  4 26  1  0
  6 27  1  0
  7 28  1  0
 11 29  1  0
 11 30  1  0
 12 31  1  0
 12 32  1  0
 13 33  1  0
 13 34  1  0
 15 35  1  0
 16 36  1  0
 17 37  1  0
 18 38  1  0
M  END
>  <Energy>  (1382) 
215.4635807891793

>  <compound_id>  (1382) 
63949

>  <target_id>  (1382) 
1

>  <reference_id>  (1382) 
187

>  <inspiration_ids>  (1382) 
[187, 89]

>  <energy_score>  (1382) 
181.57260238720846

>  <distance_score>  (1382) 
6.61132115787382

>  <path>  (1382) 
/opt/xchem-fragalysis-2/maxwin/BulkDock/SCRATCH/511022/C63949-P187/C63949-P187.minimised.mol

>  <scratch_subdir>  (1382) 
/opt/xchem-fragalysis-2/maxwin/BulkDock/SCRATCH/511022/C63949-P187

>  <fragmenstein_runtime>  (1382) 
14.281274795532227

>  <fragmenstein_outcome>  (1382) 
too moved

>  <fragmenstein_mode>  (1382) 
expansion

>  <fragmenstein_error>  (1382) 


$$$$
C63951-P187
     RDKit          3D

 43 44  0  0  0  0  0  0  0  0999 V2000
    8.4643   -7.9224   32.5173 C   0  0  0  0  0  0  0  0  0  0  0  0
    8.2593   -9.3254   32.4009 O   0  0  0  0  0  0  0  0  0  0  0  0
    7.2534   -9.8157   33.1667 C   0  0  0  0  0  0  0  0  0  0  0  0
    7.1041  -11.2084   33.4428 C   0  0  0  0  0  0  0  0  0  0  0  0
    6.0256  -11.4535   34.2621 C   0  0  0  0  0  0  0  0  0  0  0  0
    5.4578  -12.6976   34.9054 C   0  0  0  0  0  0  0  0  0  0  0  0
    5.5804  -12.6314   36.4254 C   0  0  0  0  0  0  0  0  0  0  0  0
    5.7836  -14.0492   34.3957 N   0  0  0  0  0  0  0  0  0  0  0  0
    4.8901  -15.2078   34.0539 C   0  0  0  0  0  0  0  0  0  0  0  0
    3.7248  -15.2634   34.0431 O   0  0  0  0  0  0  0  0  0  0  0  0
    5.9128  -16.3500   33.7761 N   0  0  0  0  0  0  0  0  0  0  0  0
    5.6998  -17.8021   33.5295 C   0  0  0  0  0  0  0  0  0  0  0  0
    5.7595  -18.8466   32.3821 C   0  0  0  0  0  0  0  0  0  0  0  0
    4.5014  -20.3441   32.2301 C   0  0  0  0  0  0  0  0  0  0  0  0
    4.4463  -22.0964   31.2135 N   0  0  0  0  0  0  0  0  0  0  0  0
    4.5171  -23.6179   29.5610 C   0  0  0  0  0  0  0  0  0  0  0  0
    4.5882  -22.9146   27.8008 C   0  0  0  0  0  0  0  0  0  0  0  0
    5.6543  -21.1629   26.9496 C   0  0  0  0  0  0  0  0  0  0  0  0
    6.0551  -19.8399   28.3384 C   0  0  0  0  0  0  0  0  0  0  0  0
    4.7015  -20.3776   30.1065 C   0  0  0  0  0  0  0  0  0  0  0  0
    3.8459  -19.4510   30.3628 O   0  0  0  0  0  0  0  0  0  0  0  0
    5.3277   -9.8962   34.6183 S   0  0  0  0  0  0  0  0  0  0  0  0
    6.3827   -8.9891   33.7312 N   0  0  0  0  0  0  0  0  0  0  0  0
    9.3464   -7.6652   31.9227 H   0  0  0  0  0  0  0  0  0  0  0  0
    8.6680   -7.6327   33.5544 H   0  0  0  0  0  0  0  0  0  0  0  0
    7.6179   -7.3587   32.1119 H   0  0  0  0  0  0  0  0  0  0  0  0
    7.7761  -11.9786   33.1007 H   0  0  0  0  0  0  0  0  0  0  0  0
    4.3846  -12.6544   34.7090 H   0  0  0  0  0  0  0  0  0  0  0  0
    6.6333  -12.6501   36.7297 H   0  0  0  0  0  0  0  0  0  0  0  0
    5.1225  -11.7340   36.8527 H   0  0  0  0  0  0  0  0  0  0  0  0
    5.0939  -13.4971   36.8899 H   0  0  0  0  0  0  0  0  0  0  0  0
    6.7392  -14.3560   34.3866 H   0  0  0  0  0  0  0  0  0  0  0  0
    6.8428  -16.0088   33.9428 H   0  0  0  0  0  0  0  0  0  0  0  0
    4.7503  -17.5549   33.1217 H   0  0  0  0  0  0  0  0  0  0  0  0
    5.6898  -18.2914   34.4971 H   0  0  0  0  0  0  0  0  0  0  0  0
    5.6733  -18.2826   31.4523 H   0  0  0  0  0  0  0  0  0  0  0  0
    6.8068  -19.1557   32.4352 H   0  0  0  0  0  0  0  0  0  0  0  0
    4.2616  -20.5558   33.2578 H   0  0  0  0  0  0  0  0  0  0  0  0
    3.6281  -19.6581   32.1262 H   0  0  0  0  0  0  0  0  0  0  0  0
    4.2440  -24.6514   29.7618 H   0  0  0  0  0  0  0  0  0  0  0  0
    4.4989  -23.6415   26.9758 H   0  0  0  0  0  0  0  0  0  0  0  0
    6.2463  -21.5903   26.2000 H   0  0  0  0  0  0  0  0  0  0  0  0
    6.9712  -19.3082   28.6581 H   0  0  0  0  0  0  0  0  0  0  0  0
  1  2  1  0
  2  3  1  0
  3  4  1  0
  4  5  2  0
  5  6  1  0
  6  7  1  0
  6  8  1  0
  8  9  1  0
  9 10  2  0
  9 11  1  0
 11 12  1  0
 12 13  1  0
 13 14  1  0
 14 15  1  0
 15 16  1  0
 16 17  2  0
 17 18  1  0
 18 19  2  0
 19 20  1  0
 20 21  2  0
  5 22  1  0
 22 23  1  0
 23  3  2  0
 20 15  1  0
  1 24  1  0
  1 25  1  0
  1 26  1  0
  4 27  1  0
  6 28  1  0
  7 29  1  0
  7 30  1  0
  7 31  1  0
  8 32  1  0
 11 33  1  0
 12 34  1  0
 12 35  1  0
 13 36  1  0
 13 37  1  0
 14 38  1  0
 14 39  1  0
 16 40  1  0
 17 41  1  0
 18 42  1  0
 19 43  1  0
M  END
>  <Energy>  (1383) 
1569.5156591825496

>  <compound_id>  (1383) 
63951

>  <target_id>  (1383) 
1

>  <reference_id>  (1383) 
187

>  <inspiration_ids>  (1383) 
[187, 89]

>  <energy_score>  (1383) 
1627.5616836655806

>  <distance_score>  (1383) 
8.934116316218361

>  <path>  (1383) 
/opt/xchem-fragalysis-2/maxwin/BulkDock/SCRATCH/511022/C63951-P187/C63951-P187.minimised.mol

>  <scratch_subdir>  (1383) 
/opt/xchem-fragalysis-2/maxwin/BulkDock/SCRATCH/511022/C63951-P187

>  <fragmenstein_runtime>  (1383) 
19.80628538131714

>  <fragmenstein_outcome>  (1383) 
too moved

>  <fragmenstein_mode>  (1383) 
expansion

>  <fragmenstein_error>  (1383) 


$$$$
C63958-P187
     RDKit          3D

 38 39  0  0  0  0  0  0  0  0999 V2000
   -0.6831   -6.9609   31.5345 C   0  0  0  0  0  0  0  0  0  0  0  0
   -1.5298   -8.1049   31.4257 O   0  0  0  0  0  0  0  0  0  0  0  0
   -1.4273   -8.9395   32.4892 C   0  0  0  0  0  0  0  0  0  0  0  0
   -1.6046  -10.3472   32.4033 C   0  0  0  0  0  0  0  0  0  0  0  0
   -1.1967  -10.9595   33.5832 C   0  0  0  0  0  0  0  0  0  0  0  0
   -0.9605  -12.3950   33.8269 C   0  0  0  0  0  0  0  0  0  0  0  0
   -1.8757  -13.1476   33.6798 O   0  0  0  0  0  0  0  0  0  0  0  0
    0.4311  -12.6508   34.1266 N   0  0  0  0  0  0  0  0  0  0  0  0
    1.1664  -13.8991   34.2463 C   0  0  0  0  0  0  0  0  0  0  0  0
    2.4486  -13.9155   33.3578 C   0  0  0  0  0  0  0  0  0  0  0  0
    3.0128  -15.3559   33.0906 C   0  0  0  0  0  0  0  0  0  0  0  0
    2.7303  -16.3261   31.7322 C   0  0  0  0  0  0  0  0  0  0  0  0
    3.6137  -17.7608   31.7536 N   0  0  0  0  0  0  0  0  0  0  0  0
    3.3028  -18.9132   32.3161 C   0  0  0  0  0  0  0  0  0  0  0  0
    4.2688  -19.4295   33.1342 C   0  0  0  0  0  0  0  0  0  0  0  0
    5.5369  -18.6163   33.3207 C   0  0  0  0  0  0  0  0  0  0  0  0
    5.9850  -18.0884   32.1906 C   0  0  0  0  0  0  0  0  0  0  0  0
    4.8056  -18.2698   31.3134 C   0  0  0  0  0  0  0  0  0  0  0  0
    4.5340  -19.1614   30.5131 O   0  0  0  0  0  0  0  0  0  0  0  0
   -0.9246   -9.7243   34.7363 S   0  0  0  0  0  0  0  0  0  0  0  0
   -1.0981   -8.4430   33.6789 N   0  0  0  0  0  0  0  0  0  0  0  0
   -1.1010   -6.2304   32.2348 H   0  0  0  0  0  0  0  0  0  0  0  0
   -0.6221   -6.4928   30.5486 H   0  0  0  0  0  0  0  0  0  0  0  0
    0.3392   -7.2341   31.8207 H   0  0  0  0  0  0  0  0  0  0  0  0
   -1.8523  -10.9022   31.5060 H   0  0  0  0  0  0  0  0  0  0  0  0
    0.9046  -11.7736   34.2627 H   0  0  0  0  0  0  0  0  0  0  0  0
    1.4485  -14.0054   35.2992 H   0  0  0  0  0  0  0  0  0  0  0  0
    0.4874  -14.7215   34.0032 H   0  0  0  0  0  0  0  0  0  0  0  0
    3.2127  -13.3860   33.9472 H   0  0  0  0  0  0  0  0  0  0  0  0
    2.3802  -13.3073   32.4555 H   0  0  0  0  0  0  0  0  0  0  0  0
    4.0948  -15.2777   33.2398 H   0  0  0  0  0  0  0  0  0  0  0  0
    2.7277  -15.8831   33.9928 H   0  0  0  0  0  0  0  0  0  0  0  0
    2.8549  -15.8862   30.7576 H   0  0  0  0  0  0  0  0  0  0  0  0
    1.6698  -16.4754   31.4685 H   0  0  0  0  0  0  0  0  0  0  0  0
    2.3185  -19.0639   32.0303 H   0  0  0  0  0  0  0  0  0  0  0  0
    4.0181  -20.1689   33.8448 H   0  0  0  0  0  0  0  0  0  0  0  0
    6.0852  -18.6018   34.2548 H   0  0  0  0  0  0  0  0  0  0  0  0
    6.8934  -17.5755   31.9446 H   0  0  0  0  0  0  0  0  0  0  0  0
  1  2  1  0
  2  3  1  0
  3  4  1  0
  4  5  2  0
  5  6  1  0
  6  7  2  0
  6  8  1  0
  8  9  1  0
  9 10  1  0
 10 11  1  0
 11 12  1  0
 12 13  1  0
 13 14  1  0
 14 15  2  0
 15 16  1  0
 16 17  2  0
 17 18  1  0
 18 19  2  0
  5 20  1  0
 20 21  1  0
 21  3  2  0
 18 13  1  0
  1 22  1  0
  1 23  1  0
  1 24  1  0
  4 25  1  0
  8 26  1  0
  9 27  1  0
  9 28  1  0
 10 29  1  0
 10 30  1  0
 11 31  1  0
 11 32  1  0
 12 33  1  0
 12 34  1  0
 14 35  1  0
 15 36  1  0
 16 37  1  0
 17 38  1  0
M  END
>  <Energy>  (1384) 
172.04096884742

>  <compound_id>  (1384) 
63958

>  <target_id>  (1384) 
1

>  <reference_id>  (1384) 
187

>  <inspiration_ids>  (1384) 
[187, 89]

>  <energy_score>  (1384) 
168.79473755865808

>  <distance_score>  (1384) 
7.814333655090613

>  <path>  (1384) 
/opt/xchem-fragalysis-2/maxwin/BulkDock/SCRATCH/511022/C63958-P187/C63958-P187.minimised.mol

>  <scratch_subdir>  (1384) 
/opt/xchem-fragalysis-2/maxwin/BulkDock/SCRATCH/511022/C63958-P187

>  <fragmenstein_runtime>  (1384) 
17.90121364593506

>  <fragmenstein_outcome>  (1384) 
too moved

>  <fragmenstein_mode>  (1384) 
expansion

>  <fragmenstein_error>  (1384) 


$$$$
C63961-P187
     RDKit          3D

 37 38  0  0  0  0  0  0  0  0999 V2000
    2.7963   -3.6019   35.0352 C   0  0  0  0  0  0  0  0  0  0  0  0
    3.0421   -3.8455   33.6572 O   0  0  0  0  0  0  0  0  0  0  0  0
    2.0451   -4.4999   33.0255 C   0  0  0  0  0  0  0  0  0  0  0  0
    2.0953   -4.7814   31.6430 C   0  0  0  0  0  0  0  0  0  0  0  0
    0.9783   -5.4950   31.2706 C   0  0  0  0  0  0  0  0  0  0  0  0
    0.6210   -6.0167   29.9383 C   0  0  0  0  0  0  0  0  0  0  0  0
    0.5188   -7.4519   30.0307 O   0  0  0  0  0  0  0  0  0  0  0  0
    1.2895   -8.2027   29.1974 C   0  0  0  0  0  0  0  0  0  0  0  0
    2.0670   -7.7724   28.3505 O   0  0  0  0  0  0  0  0  0  0  0  0
    1.0066   -9.6598   29.3496 C   0  0  0  0  0  0  0  0  0  0  0  0
    2.3282  -11.2603   29.6477 C   0  0  0  0  0  0  0  0  0  0  0  0
    2.6397  -12.3217   30.9538 C   0  0  0  0  0  0  0  0  0  0  0  0
    2.7947  -13.7315   30.8049 N   0  0  0  0  0  0  0  0  0  0  0  0
    2.6357  -14.6766   29.4561 C   0  0  0  0  0  0  0  0  0  0  0  0
    2.4402  -15.9702   29.7420 C   0  0  0  0  0  0  0  0  0  0  0  0
    2.5078  -16.5211   31.1042 C   0  0  0  0  0  0  0  0  0  0  0  0
    2.7338  -15.7947   32.2203 C   0  0  0  0  0  0  0  0  0  0  0  0
    2.9380  -14.3772   32.2358 C   0  0  0  0  0  0  0  0  0  0  0  0
    3.4074  -13.9342   33.2760 O   0  0  0  0  0  0  0  0  0  0  0  0
   -0.0445   -5.6646   32.6302 S   0  0  0  0  0  0  0  0  0  0  0  0
    0.9888   -4.9379   33.7015 N   0  0  0  0  0  0  0  0  0  0  0  0
    3.6523   -3.0471   35.4321 H   0  0  0  0  0  0  0  0  0  0  0  0
    2.7216   -4.5378   35.6004 H   0  0  0  0  0  0  0  0  0  0  0  0
    1.9057   -2.9800   35.1810 H   0  0  0  0  0  0  0  0  0  0  0  0
    2.9003   -4.4899   30.9827 H   0  0  0  0  0  0  0  0  0  0  0  0
   -0.3499   -5.6186   29.6373 H   0  0  0  0  0  0  0  0  0  0  0  0
    1.3701   -5.6975   29.2058 H   0  0  0  0  0  0  0  0  0  0  0  0
    0.0649   -9.7270   29.9618 H   0  0  0  0  0  0  0  0  0  0  0  0
    0.4434   -9.7669   28.4097 H   0  0  0  0  0  0  0  0  0  0  0  0
    1.3590  -11.6408   29.5176 H   0  0  0  0  0  0  0  0  0  0  0  0
    3.0893  -11.6880   29.0226 H   0  0  0  0  0  0  0  0  0  0  0  0
    1.7401  -12.3651   31.5470 H   0  0  0  0  0  0  0  0  0  0  0  0
    3.3791  -12.0010   31.6874 H   0  0  0  0  0  0  0  0  0  0  0  0
    2.6524  -14.2718   28.4468 H   0  0  0  0  0  0  0  0  0  0  0  0
    2.6074  -16.5675   28.8714 H   0  0  0  0  0  0  0  0  0  0  0  0
    2.7992  -17.5690   31.1950 H   0  0  0  0  0  0  0  0  0  0  0  0
    3.1083  -16.1759   33.1572 H   0  0  0  0  0  0  0  0  0  0  0  0
  1  2  1  0
  2  3  1  0
  3  4  1  0
  4  5  2  0
  5  6  1  0
  6  7  1  0
  7  8  1  0
  8  9  2  0
  8 10  1  0
 10 11  1  0
 11 12  1  0
 12 13  1  0
 13 14  1  0
 14 15  2  0
 15 16  1  0
 16 17  2  0
 17 18  1  0
 18 19  2  0
  5 20  1  0
 20 21  1  0
 21  3  2  0
 18 13  1  0
  1 22  1  0
  1 23  1  0
  1 24  1  0
  4 25  1  0
  6 26  1  0
  6 27  1  0
 10 28  1  0
 10 29  1  0
 11 30  1  0
 11 31  1  0
 12 32  1  0
 12 33  1  0
 14 34  1  0
 15 35  1  0
 16 36  1  0
 17 37  1  0
M  END
>  <Energy>  (1385) 
192.79024660467027

>  <compound_id>  (1385) 
63961

>  <target_id>  (1385) 
1

>  <reference_id>  (1385) 
187

>  <inspiration_ids>  (1385) 
[187, 89]

>  <energy_score>  (1385) 
182.911129496557

>  <distance_score>  (1385) 
6.535840028344805

>  <path>  (1385) 
/opt/xchem-fragalysis-2/maxwin/BulkDock/SCRATCH/511022/C63961-P187/C63961-P187.minimised.mol

>  <scratch_subdir>  (1385) 
/opt/xchem-fragalysis-2/maxwin/BulkDock/SCRATCH/511022/C63961-P187

>  <fragmenstein_runtime>  (1385) 
16.736916303634644

>  <fragmenstein_outcome>  (1385) 
too moved

>  <fragmenstein_mode>  (1385) 
expansion

>  <fragmenstein_error>  (1385) 


$$$$
C50697-P96
     RDKit          3D

 38 40  0  0  0  0  0  0  0  0999 V2000
    2.2463  -12.0755   21.8997 O   0  0  0  0  0  0  0  0  0  0  0  0
    2.2320  -11.5895   23.0303 C   0  0  0  0  0  0  0  0  0  0  0  0
    0.5569  -11.5044   24.0954 N   0  0  0  0  0  0  0  0  0  0  0  0
   -1.4211  -12.2591   23.7617 C   0  0  0  0  0  0  0  0  0  0  0  0
   -2.2920  -13.1328   25.5541 C   0  0  0  0  0  0  0  0  0  0  0  0
   -3.1814  -14.4457   26.6598 N   0  0  0  0  0  0  0  0  0  0  0  0
   -3.9592  -14.3000   28.1792 C   0  0  0  0  0  0  0  0  0  0  0  0
   -5.3313  -15.0943   28.3239 C   0  0  0  0  0  0  0  0  0  0  0  0
   -6.8195  -14.7275   29.1016 Cl  0  0  0  0  0  0  0  0  0  0  0  0
   -5.0521  -16.4731   27.0688 C   0  0  0  0  0  0  0  0  0  0  0  0
   -3.6406  -15.6994   26.3619 N   0  0  0  0  0  0  0  0  0  0  0  0
    4.1977  -11.1089   23.6280 C   0  0  0  0  0  0  0  0  0  0  0  0
    4.8008  -10.4047   24.8642 C   0  0  0  0  0  0  0  0  0  0  0  0
    5.8910   -9.2893   25.0840 C   0  0  0  0  0  0  0  0  0  0  0  0
    6.7800   -8.8098   24.1342 C   0  0  0  0  0  0  0  0  0  0  0  0
    6.4955   -9.2747   22.9045 C   0  0  0  0  0  0  0  0  0  0  0  0
    5.2934  -10.1348   22.8006 C   0  0  0  0  0  0  0  0  0  0  0  0
    7.2676   -8.8257   21.6759 C   0  0  0  0  0  0  0  0  0  0  0  0
    8.0545   -7.5814   21.8323 N   0  0  0  0  0  0  0  0  0  0  0  0
    8.7706   -7.6144   23.1176 C   0  0  0  0  0  0  0  0  0  0  0  0
    7.8143   -7.7380   24.3229 C   0  0  0  0  0  0  0  0  0  0  0  0
    0.7253  -11.0187   24.9092 H   0  0  0  0  0  0  0  0  0  0  0  0
   -2.2455  -11.5325   23.7612 H   0  0  0  0  0  0  0  0  0  0  0  0
   -1.3553  -13.0098   22.9670 H   0  0  0  0  0  0  0  0  0  0  0  0
   -1.4820  -13.2890   26.2700 H   0  0  0  0  0  0  0  0  0  0  0  0
   -2.4577  -12.4771   26.3533 H   0  0  0  0  0  0  0  0  0  0  0  0
   -3.5320  -13.4382   28.6626 H   0  0  0  0  0  0  0  0  0  0  0  0
   -5.6573  -17.3188   26.7556 H   0  0  0  0  0  0  0  0  0  0  0  0
    4.2772  -10.5727   25.8024 H   0  0  0  0  0  0  0  0  0  0  0  0
    5.9251   -8.8498   26.0871 H   0  0  0  0  0  0  0  0  0  0  0  0
    4.9464   -9.7428   21.8487 H   0  0  0  0  0  0  0  0  0  0  0  0
    7.9449   -9.6442   21.4027 H   0  0  0  0  0  0  0  0  0  0  0  0
    6.5769   -8.6702   20.8406 H   0  0  0  0  0  0  0  0  0  0  0  0
    8.7680   -7.5910   21.1021 H   0  0  0  0  0  0  0  0  0  0  0  0
    9.3635   -6.6991   23.2222 H   0  0  0  0  0  0  0  0  0  0  0  0
    9.4783   -8.4540   23.1192 H   0  0  0  0  0  0  0  0  0  0  0  0
    7.2946   -6.7828   24.4688 H   0  0  0  0  0  0  0  0  0  0  0  0
    8.3986   -7.9458   25.2264 H   0  0  0  0  0  0  0  0  0  0  0  0
  1  2  2  0
  2  3  1  0
  3  4  1  0
  4  5  1  0
  5  6  1  0
  6  7  1  0
  7  8  2  0
  8  9  1  0
  8 10  1  0
 10 11  2  0
  2 12  1  0
 12 13  2  0
 13 14  1  0
 14 15  2  0
 15 16  1  0
 16 17  2  0
 16 18  1  0
 18 19  1  0
 19 20  1  0
 20 21  1  0
 11  6  1  0
 17 12  1  0
 21 15  1  0
  3 22  1  0
  4 23  1  0
  4 24  1  0
  5 25  1  0
  5 26  1  0
  7 27  1  0
 10 28  1  0
 13 29  1  0
 14 30  1  0
 17 31  1  0
 18 32  1  0
 18 33  1  0
 19 34  1  0
 20 35  1  0
 20 36  1  0
 21 37  1  0
 21 38  1  0
M  END
>  <Energy>  (1386) 
997.90227673668028

>  <compound_id>  (1386) 
50697

>  <target_id>  (1386) 
1

>  <reference_id>  (1386) 
96

>  <inspiration_ids>  (1386) 
[96, 146]

>  <energy_score>  (1386) 
933.0955841203568

>  <distance_score>  (1386) 
12.205678927565211

>  <path>  (1386) 
/opt/xchem-fragalysis-2/maxwin/BulkDock/SCRATCH/511022/C50697-P96/C50697-P96.minimised.mol

>  <scratch_subdir>  (1386) 
/opt/xchem-fragalysis-2/maxwin/BulkDock/SCRATCH/511022/C50697-P96

>  <fragmenstein_runtime>  (1386) 
20.079367876052856

>  <fragmenstein_outcome>  (1386) 
too moved

>  <fragmenstein_mode>  (1386) 
expansion

>  <fragmenstein_error>  (1386) 


$$$$
C50697-P146
     RDKit          3D

 38 40  0  0  0  0  0  0  0  0999 V2000
    3.2552  -13.5293   15.9583 O   0  0  0  0  0  0  0  0  0  0  0  0
    3.9203  -14.1003   16.7784 C   0  0  0  0  0  0  0  0  0  0  0  0
    3.6137  -15.2572   17.6067 N   0  0  0  0  0  0  0  0  0  0  0  0
    2.4120  -16.1619   17.6293 C   0  0  0  0  0  0  0  0  0  0  0  0
    2.1857  -17.0111   18.9128 C   0  0  0  0  0  0  0  0  0  0  0  0
    0.9000  -17.6690   19.2357 N   0  0  0  0  0  0  0  0  0  0  0  0
   -0.3863  -17.3115   18.9141 C   0  0  0  0  0  0  0  0  0  0  0  0
   -1.2303  -18.1211   19.6434 C   0  0  0  0  0  0  0  0  0  0  0  0
   -2.9192  -18.1090   19.6796 Cl  0  0  0  0  0  0  0  0  0  0  0  0
   -0.3812  -18.9698   20.3616 C   0  0  0  0  0  0  0  0  0  0  0  0
    0.9089  -18.7060   20.1225 N   0  0  0  0  0  0  0  0  0  0  0  0
    5.3271  -13.4412   16.9193 C   0  0  0  0  0  0  0  0  0  0  0  0
    6.1736  -13.5622   18.0244 C   0  0  0  0  0  0  0  0  0  0  0  0
    7.4359  -12.9205   18.0546 C   0  0  0  0  0  0  0  0  0  0  0  0
    7.8948  -12.1418   16.9806 C   0  0  0  0  0  0  0  0  0  0  0  0
    7.0485  -11.9211   15.8926 C   0  0  0  0  0  0  0  0  0  0  0  0
    5.7871  -12.5784   15.8757 C   0  0  0  0  0  0  0  0  0  0  0  0
    7.5040  -11.0859   14.7087 C   0  0  0  0  0  0  0  0  0  0  0  0
    8.7187  -10.2871   14.9302 N   0  0  0  0  0  0  0  0  0  0  0  0
    9.7394  -11.0690   15.6255 C   0  0  0  0  0  0  0  0  0  0  0  0
    9.2677  -11.5269   17.0091 C   0  0  0  0  0  0  0  0  0  0  0  0
    4.4448  -15.5201   18.1299 H   0  0  0  0  0  0  0  0  0  0  0  0
    2.5198  -16.8302   16.7676 H   0  0  0  0  0  0  0  0  0  0  0  0
    1.5480  -15.5257   17.4140 H   0  0  0  0  0  0  0  0  0  0  0  0
    2.9342  -17.8119   18.9093 H   0  0  0  0  0  0  0  0  0  0  0  0
    2.3838  -16.3684   19.7702 H   0  0  0  0  0  0  0  0  0  0  0  0
   -0.5965  -16.5059   18.2256 H   0  0  0  0  0  0  0  0  0  0  0  0
   -0.6325  -19.7655   21.0496 H   0  0  0  0  0  0  0  0  0  0  0  0
    5.8656  -14.1291   18.8978 H   0  0  0  0  0  0  0  0  0  0  0  0
    8.0645  -13.0569   18.9327 H   0  0  0  0  0  0  0  0  0  0  0  0
    5.1433  -12.4281   15.0078 H   0  0  0  0  0  0  0  0  0  0  0  0
    6.6962  -10.4045   14.4175 H   0  0  0  0  0  0  0  0  0  0  0  0
    7.6812  -11.7612   13.8628 H   0  0  0  0  0  0  0  0  0  0  0  0
    8.4752   -9.4820   15.5254 H   0  0  0  0  0  0  0  0  0  0  0  0
   10.6480  -10.4722   15.7436 H   0  0  0  0  0  0  0  0  0  0  0  0
   10.0148  -11.9359   15.0113 H   0  0  0  0  0  0  0  0  0  0  0  0
    9.2134  -10.6918   17.7046 H   0  0  0  0  0  0  0  0  0  0  0  0
    9.9910  -12.2483   17.4072 H   0  0  0  0  0  0  0  0  0  0  0  0
  1  2  2  0
  2  3  1  0
  3  4  1  0
  4  5  1  0
  5  6  1  0
  6  7  1  0
  7  8  2  0
  8  9  1  0
  8 10  1  0
 10 11  2  0
  2 12  1  0
 12 13  2  0
 13 14  1  0
 14 15  2  0
 15 16  1  0
 16 17  2  0
 16 18  1  0
 18 19  1  0
 19 20  1  0
 20 21  1  0
 11  6  1  0
 17 12  1  0
 21 15  1  0
  3 22  1  0
  4 23  1  0
  4 24  1  0
  5 25  1  0
  5 26  1  0
  7 27  1  0
 10 28  1  0
 13 29  1  0
 14 30  1  0
 17 31  1  0
 18 32  1  0
 18 33  1  0
 19 34  1  0
 20 35  1  0
 20 36  1  0
 21 37  1  0
 21 38  1  0
M  END
>  <Energy>  (1387) 
62.556697183388287

>  <compound_id>  (1387) 
50697

>  <target_id>  (1387) 
1

>  <reference_id>  (1387) 
146

>  <inspiration_ids>  (1387) 
[96, 146]

>  <energy_score>  (1387) 
-2.2499954329366574

>  <distance_score>  (1387) 
13.212064148343094

>  <path>  (1387) 
/opt/xchem-fragalysis-2/maxwin/BulkDock/SCRATCH/511022/C50697-P146/C50697-P146.minimised.mol

>  <scratch_subdir>  (1387) 
/opt/xchem-fragalysis-2/maxwin/BulkDock/SCRATCH/511022/C50697-P146

>  <fragmenstein_runtime>  (1387) 
28.97689437866211

>  <fragmenstein_outcome>  (1387) 
too moved

>  <fragmenstein_mode>  (1387) 
expansion

>  <fragmenstein_error>  (1387) 


$$$$
C50698-P96
     RDKit          3D

 35 37  0  0  0  0  0  0  0  0999 V2000
    3.1083  -13.4216   13.7022 O   0  0  0  0  0  0  0  0  0  0  0  0
    2.4031  -12.5146   14.0541 C   0  0  0  0  0  0  0  0  0  0  0  0
    1.0387  -12.5161   14.5709 N   0  0  0  0  0  0  0  0  0  0  0  0
    0.1813  -13.5723   14.8961 C   0  0  0  0  0  0  0  0  0  0  0  0
   -0.9772  -13.2817   15.5274 N   0  0  0  0  0  0  0  0  0  0  0  0
   -1.5566  -14.4740   15.7947 N   0  0  0  0  0  0  0  0  0  0  0  0
   -0.8586  -15.5336   15.3230 C   0  0  0  0  0  0  0  0  0  0  0  0
    0.2221  -14.9862   14.6606 C   0  0  0  0  0  0  0  0  0  0  0  0
    1.2821  -15.8604   13.6635 Cl  0  0  0  0  0  0  0  0  0  0  0  0
    3.0410  -11.1070   13.8129 C   0  0  0  0  0  0  0  0  0  0  0  0
    2.3173   -9.9168   13.7310 C   0  0  0  0  0  0  0  0  0  0  0  0
    2.9280   -8.7095   13.3229 C   0  0  0  0  0  0  0  0  0  0  0  0
    4.2842   -8.6300   12.9554 C   0  0  0  0  0  0  0  0  0  0  0  0
    5.0688   -9.7801   13.1368 C   0  0  0  0  0  0  0  0  0  0  0  0
    4.4315  -10.9959   13.5351 C   0  0  0  0  0  0  0  0  0  0  0  0
    6.5561   -9.7741   12.8641 C   0  0  0  0  0  0  0  0  0  0  0  0
    6.9087   -9.5873   11.3885 C   0  0  0  0  0  0  0  0  0  0  0  0
    6.2036   -8.4197   10.7001 C   0  0  0  0  0  0  0  0  0  0  0  0
    6.0394   -7.3167   11.6344 N   0  0  0  0  0  0  0  0  0  0  0  0
    4.7299   -7.3332   12.2889 C   0  0  0  0  0  0  0  0  0  0  0  0
    0.7888  -11.5810   14.8433 H   0  0  0  0  0  0  0  0  0  0  0  0
   -2.4402  -14.4786   16.2938 H   0  0  0  0  0  0  0  0  0  0  0  0
   -1.2090  -16.5506   15.4199 H   0  0  0  0  0  0  0  0  0  0  0  0
    1.2482   -9.8877   13.9123 H   0  0  0  0  0  0  0  0  0  0  0  0
    2.2923   -7.8302   13.2201 H   0  0  0  0  0  0  0  0  0  0  0  0
    5.0303  -11.9058   13.5785 H   0  0  0  0  0  0  0  0  0  0  0  0
    7.0015  -10.7173   13.2048 H   0  0  0  0  0  0  0  0  0  0  0  0
    7.0281   -9.0009   13.4807 H   0  0  0  0  0  0  0  0  0  0  0  0
    7.9938   -9.4674   11.3182 H   0  0  0  0  0  0  0  0  0  0  0  0
    6.6676  -10.5051   10.8369 H   0  0  0  0  0  0  0  0  0  0  0  0
    5.2482   -8.7359   10.2621 H   0  0  0  0  0  0  0  0  0  0  0  0
    6.8157   -8.0979    9.8501 H   0  0  0  0  0  0  0  0  0  0  0  0
    6.1721   -6.4188   11.1666 H   0  0  0  0  0  0  0  0  0  0  0  0
    3.9811   -7.0756   11.5270 H   0  0  0  0  0  0  0  0  0  0  0  0
    4.6865   -6.5339   13.0365 H   0  0  0  0  0  0  0  0  0  0  0  0
  1  2  2  0
  2  3  1  0
  3  4  1  0
  4  5  2  0
  5  6  1  0
  6  7  1  0
  7  8  2  0
  8  9  1  0
  2 10  1  0
 10 11  2  0
 11 12  1  0
 12 13  2  0
 13 14  1  0
 14 15  2  0
 14 16  1  0
 16 17  1  0
 17 18  1  0
 18 19  1  0
 19 20  1  0
  8  4  1  0
 15 10  1  0
 20 13  1  0
  3 21  1  0
  6 22  1  0
  7 23  1  0
 11 24  1  0
 12 25  1  0
 15 26  1  0
 16 27  1  0
 16 28  1  0
 17 29  1  0
 17 30  1  0
 18 31  1  0
 18 32  1  0
 19 33  1  0
 20 34  1  0
 20 35  1  0
M  END
>  <Energy>  (1388) 
31.682973434314107

>  <compound_id>  (1388) 
50698

>  <target_id>  (1388) 
1

>  <reference_id>  (1388) 
96

>  <inspiration_ids>  (1388) 
[96, 146]

>  <energy_score>  (1388) 
-45.70232569574159

>  <distance_score>  (1388) 
15.415186085794

>  <path>  (1388) 
/opt/xchem-fragalysis-2/maxwin/BulkDock/SCRATCH/511022/C50698-P96/C50698-P96.minimised.mol

>  <scratch_subdir>  (1388) 
/opt/xchem-fragalysis-2/maxwin/BulkDock/SCRATCH/511022/C50698-P96

>  <fragmenstein_runtime>  (1388) 
17.19208264350891

>  <fragmenstein_outcome>  (1388) 
too moved

>  <fragmenstein_mode>  (1388) 
expansion

>  <fragmenstein_error>  (1388) 


$$$$
C50698-P146
     RDKit          3D

 35 37  0  0  0  0  0  0  0  0999 V2000
    1.6683   -7.4803   26.0872 O   0  0  0  0  0  0  0  0  0  0  0  0
    2.6155   -8.0320   26.5783 C   0  0  0  0  0  0  0  0  0  0  0  0
    2.6994   -9.2477   27.3626 N   0  0  0  0  0  0  0  0  0  0  0  0
    1.7200  -10.1908   27.7054 C   0  0  0  0  0  0  0  0  0  0  0  0
    2.1121  -11.3945   28.1713 N   0  0  0  0  0  0  0  0  0  0  0  0
    0.9792  -12.1245   28.2852 N   0  0  0  0  0  0  0  0  0  0  0  0
   -0.1507  -11.4163   28.0364 C   0  0  0  0  0  0  0  0  0  0  0  0
    0.2826  -10.1543   27.6868 C   0  0  0  0  0  0  0  0  0  0  0  0
   -0.7401   -8.8311   27.3974 Cl  0  0  0  0  0  0  0  0  0  0  0  0
    3.9465   -7.2829   26.3224 C   0  0  0  0  0  0  0  0  0  0  0  0
    3.8873   -5.8753   26.3340 C   0  0  0  0  0  0  0  0  0  0  0  0
    4.9596   -5.0648   25.9186 C   0  0  0  0  0  0  0  0  0  0  0  0
    6.1433   -5.6349   25.4569 C   0  0  0  0  0  0  0  0  0  0  0  0
    6.2787   -7.0358   25.5328 C   0  0  0  0  0  0  0  0  0  0  0  0
    5.1736   -7.8519   25.9307 C   0  0  0  0  0  0  0  0  0  0  0  0
    7.6007   -7.6440   25.1325 C   0  0  0  0  0  0  0  0  0  0  0  0
    8.7988   -7.1579   25.9578 C   0  0  0  0  0  0  0  0  0  0  0  0
    8.7755   -5.7095   26.4653 C   0  0  0  0  0  0  0  0  0  0  0  0
    8.4900   -4.6517   25.4922 N   0  0  0  0  0  0  0  0  0  0  0  0
    7.2037   -4.7787   24.7988 C   0  0  0  0  0  0  0  0  0  0  0  0
    3.6691   -9.4585   27.5406 H   0  0  0  0  0  0  0  0  0  0  0  0
    1.0617  -13.0967   28.5678 H   0  0  0  0  0  0  0  0  0  0  0  0
   -1.1367  -11.8427   28.1486 H   0  0  0  0  0  0  0  0  0  0  0  0
    2.9548   -5.3871   26.6191 H   0  0  0  0  0  0  0  0  0  0  0  0
    4.8196   -3.9863   25.8990 H   0  0  0  0  0  0  0  0  0  0  0  0
    5.2774   -8.9310   25.8620 H   0  0  0  0  0  0  0  0  0  0  0  0
    7.5558   -8.7369   25.2159 H   0  0  0  0  0  0  0  0  0  0  0  0
    7.7573   -7.4331   24.0758 H   0  0  0  0  0  0  0  0  0  0  0  0
    8.8626   -7.7956   26.8510 H   0  0  0  0  0  0  0  0  0  0  0  0
    9.7250   -7.3581   25.4071 H   0  0  0  0  0  0  0  0  0  0  0  0
    9.7648   -5.4984   26.8904 H   0  0  0  0  0  0  0  0  0  0  0  0
    8.0837   -5.6269   27.3141 H   0  0  0  0  0  0  0  0  0  0  0  0
    8.4776   -3.7708   26.0082 H   0  0  0  0  0  0  0  0  0  0  0  0
    6.8146   -3.7651   24.6395 H   0  0  0  0  0  0  0  0  0  0  0  0
    7.3646   -5.1694   23.7916 H   0  0  0  0  0  0  0  0  0  0  0  0
  1  2  2  0
  2  3  1  0
  3  4  1  0
  4  5  2  0
  5  6  1  0
  6  7  1  0
  7  8  2  0
  8  9  1  0
  2 10  1  0
 10 11  2  0
 11 12  1  0
 12 13  2  0
 13 14  1  0
 14 15  2  0
 14 16  1  0
 16 17  1  0
 17 18  1  0
 18 19  1  0
 19 20  1  0
  8  4  1  0
 15 10  1  0
 20 13  1  0
  3 21  1  0
  6 22  1  0
  7 23  1  0
 11 24  1  0
 12 25  1  0
 15 26  1  0
 16 27  1  0
 16 28  1  0
 17 29  1  0
 17 30  1  0
 18 31  1  0
 18 32  1  0
 19 33  1  0
 20 34  1  0
 20 35  1  0
M  END
>  <Energy>  (1389) 
32.89333160875124

>  <compound_id>  (1389) 
50698

>  <target_id>  (1389) 
1

>  <reference_id>  (1389) 
146

>  <inspiration_ids>  (1389) 
[96, 146]

>  <energy_score>  (1389) 
-44.49196752130854

>  <distance_score>  (1389) 
15.316150748581684

>  <path>  (1389) 
/opt/xchem-fragalysis-2/maxwin/BulkDock/SCRATCH/511022/C50698-P146/C50698-P146.minimised.mol

>  <scratch_subdir>  (1389) 
/opt/xchem-fragalysis-2/maxwin/BulkDock/SCRATCH/511022/C50698-P146

>  <fragmenstein_runtime>  (1389) 
26.10470223426819

>  <fragmenstein_outcome>  (1389) 
too moved

>  <fragmenstein_mode>  (1389) 
expansion

>  <fragmenstein_error>  (1389) 


$$$$
C50699-P96
     RDKit          3D

 32 34  0  0  0  0  0  0  0  0999 V2000
    2.4277  -12.2385   22.2020 O   0  0  0  0  0  0  0  0  0  0  0  0
    2.7428  -13.1458   21.4681 C   0  0  0  0  0  0  0  0  0  0  0  0
    3.2191  -14.8917   22.0404 N   0  0  0  0  0  0  0  0  0  0  0  0
    3.1857  -15.7024   23.6927 C   0  0  0  0  0  0  0  0  0  0  0  0
    2.7886  -15.3576   24.9782 N   0  0  0  0  0  0  0  0  0  0  0  0
    2.4613  -16.4396   25.7096 N   0  0  0  0  0  0  0  0  0  0  0  0
    2.5776  -17.6205   25.0899 C   0  0  0  0  0  0  0  0  0  0  0  0
    3.0261  -17.3184   23.8252 C   0  0  0  0  0  0  0  0  0  0  0  0
    3.3124  -18.6329   22.7205 Cl  0  0  0  0  0  0  0  0  0  0  0  0
    2.4756  -12.5665   19.5559 C   0  0  0  0  0  0  0  0  0  0  0  0
    1.5533  -13.4352   18.4039 C   0  0  0  0  0  0  0  0  0  0  0  0
    1.9539  -13.4413   16.8472 C   0  0  0  0  0  0  0  0  0  0  0  0
    3.0822  -12.6229   16.3102 C   0  0  0  0  0  0  0  0  0  0  0  0
    3.8563  -11.7733   17.1849 C   0  0  0  0  0  0  0  0  0  0  0  0
    3.4665  -11.5963   18.6188 C   0  0  0  0  0  0  0  0  0  0  0  0
    5.1024  -11.0436   16.6737 C   0  0  0  0  0  0  0  0  0  0  0  0
    5.3817  -11.2415   15.1812 C   0  0  0  0  0  0  0  0  0  0  0  0
    4.1427  -11.3698   14.4103 N   0  0  0  0  0  0  0  0  0  0  0  0
    3.4382  -12.6052   14.8360 C   0  0  0  0  0  0  0  0  0  0  0  0
    3.4949  -15.3861   21.3299 H   0  0  0  0  0  0  0  0  0  0  0  0
    2.1570  -16.2712   26.6613 H   0  0  0  0  0  0  0  0  0  0  0  0
    2.3417  -18.5600   25.5657 H   0  0  0  0  0  0  0  0  0  0  0  0
    0.7478  -14.0877   18.7283 H   0  0  0  0  0  0  0  0  0  0  0  0
    1.3637  -14.0635   16.1785 H   0  0  0  0  0  0  0  0  0  0  0  0
    3.9330  -10.7101   18.9830 H   0  0  0  0  0  0  0  0  0  0  0  0
    5.0153   -9.9760   16.8728 H   0  0  0  0  0  0  0  0  0  0  0  0
    5.9697  -11.3990   17.2417 H   0  0  0  0  0  0  0  0  0  0  0  0
    5.9650  -10.3944   14.8030 H   0  0  0  0  0  0  0  0  0  0  0  0
    6.0040  -12.1325   15.0280 H   0  0  0  0  0  0  0  0  0  0  0  0
    3.5260  -10.5948   14.6803 H   0  0  0  0  0  0  0  0  0  0  0  0
    2.5142  -12.6730   14.2509 H   0  0  0  0  0  0  0  0  0  0  0  0
    4.0426  -13.4881   14.5973 H   0  0  0  0  0  0  0  0  0  0  0  0
  1  2  2  0
  2  3  1  0
  3  4  1  0
  4  5  2  0
  5  6  1  0
  6  7  1  0
  7  8  2  0
  8  9  1  0
  2 10  1  0
 10 11  2  0
 11 12  1  0
 12 13  2  0
 13 14  1  0
 14 15  2  0
 14 16  1  0
 16 17  1  0
 17 18  1  0
 18 19  1  0
  8  4  1  0
 15 10  1  0
 19 13  1  0
  3 20  1  0
  6 21  1  0
  7 22  1  0
 11 23  1  0
 12 24  1  0
 15 25  1  0
 16 26  1  0
 16 27  1  0
 17 28  1  0
 17 29  1  0
 18 30  1  0
 19 31  1  0
 19 32  1  0
M  END
>  <Energy>  (1390) 
386.64250908457137

>  <compound_id>  (1390) 
50699

>  <target_id>  (1390) 
1

>  <reference_id>  (1390) 
96

>  <inspiration_ids>  (1390) 
[96, 146]

>  <energy_score>  (1390) 
320.56962188679586

>  <distance_score>  (1390) 
14.906547825993355

>  <path>  (1390) 
/opt/xchem-fragalysis-2/maxwin/BulkDock/SCRATCH/511022/C50699-P96/C50699-P96.minimised.mol

>  <scratch_subdir>  (1390) 
/opt/xchem-fragalysis-2/maxwin/BulkDock/SCRATCH/511022/C50699-P96

>  <fragmenstein_runtime>  (1390) 
8.121397256851196

>  <fragmenstein_outcome>  (1390) 
too moved

>  <fragmenstein_mode>  (1390) 
expansion

>  <fragmenstein_error>  (1390) 


$$$$
C50699-P146
     RDKit          3D

 32 34  0  0  0  0  0  0  0  0999 V2000
    1.2066  -11.8912   14.3767 O   0  0  0  0  0  0  0  0  0  0  0  0
    2.1584  -12.5772   14.6360 C   0  0  0  0  0  0  0  0  0  0  0  0
    2.2440  -13.8733   15.3064 N   0  0  0  0  0  0  0  0  0  0  0  0
    1.2551  -14.6584   15.9275 C   0  0  0  0  0  0  0  0  0  0  0  0
    1.6477  -15.7229   16.6553 N   0  0  0  0  0  0  0  0  0  0  0  0
    0.5217  -16.2590   17.1685 N   0  0  0  0  0  0  0  0  0  0  0  0
   -0.6047  -15.5869   16.8273 C   0  0  0  0  0  0  0  0  0  0  0  0
   -0.1781  -14.5530   16.0176 C   0  0  0  0  0  0  0  0  0  0  0  0
   -1.2088  -13.4141   15.2988 Cl  0  0  0  0  0  0  0  0  0  0  0  0
    3.4983  -11.9372   14.1849 C   0  0  0  0  0  0  0  0  0  0  0  0
    4.6251  -12.6649   13.7894 C   0  0  0  0  0  0  0  0  0  0  0  0
    5.7834  -12.0181   13.2887 C   0  0  0  0  0  0  0  0  0  0  0  0
    5.8443  -10.6252   13.1294 C   0  0  0  0  0  0  0  0  0  0  0  0
    4.7171   -9.8756   13.4880 C   0  0  0  0  0  0  0  0  0  0  0  0
    3.5795  -10.5254   14.0358 C   0  0  0  0  0  0  0  0  0  0  0  0
    4.7337   -8.3872   13.2422 C   0  0  0  0  0  0  0  0  0  0  0  0
    5.6629   -8.0653   12.0657 C   0  0  0  0  0  0  0  0  0  0  0  0
    7.0149   -8.5176   12.3788 N   0  0  0  0  0  0  0  0  0  0  0  0
    7.0586   -9.9824   12.4863 C   0  0  0  0  0  0  0  0  0  0  0  0
    3.2168  -14.1193   15.4286 H   0  0  0  0  0  0  0  0  0  0  0  0
    0.6109  -17.0838   17.7537 H   0  0  0  0  0  0  0  0  0  0  0  0
   -1.5853  -15.8876   17.1650 H   0  0  0  0  0  0  0  0  0  0  0  0
    4.6253  -13.7505   13.8242 H   0  0  0  0  0  0  0  0  0  0  0  0
    6.6327  -12.6319   12.9930 H   0  0  0  0  0  0  0  0  0  0  0  0
    2.7131   -9.9236   14.3098 H   0  0  0  0  0  0  0  0  0  0  0  0
    3.7234   -8.0374   13.0006 H   0  0  0  0  0  0  0  0  0  0  0  0
    5.0593   -7.8794   14.1574 H   0  0  0  0  0  0  0  0  0  0  0  0
    5.6502   -6.9915   11.8839 H   0  0  0  0  0  0  0  0  0  0  0  0
    5.3056   -8.5353   11.1397 H   0  0  0  0  0  0  0  0  0  0  0  0
    7.6624   -8.2194   11.6476 H   0  0  0  0  0  0  0  0  0  0  0  0
    7.1621  -10.3999   11.4768 H   0  0  0  0  0  0  0  0  0  0  0  0
    7.9481  -10.2664   13.0580 H   0  0  0  0  0  0  0  0  0  0  0  0
  1  2  2  0
  2  3  1  0
  3  4  1  0
  4  5  2  0
  5  6  1  0
  6  7  1  0
  7  8  2  0
  8  9  1  0
  2 10  1  0
 10 11  2  0
 11 12  1  0
 12 13  2  0
 13 14  1  0
 14 15  2  0
 14 16  1  0
 16 17  1  0
 17 18  1  0
 18 19  1  0
  8  4  1  0
 15 10  1  0
 19 13  1  0
  3 20  1  0
  6 21  1  0
  7 22  1  0
 11 23  1  0
 12 24  1  0
 15 25  1  0
 16 26  1  0
 16 27  1  0
 17 28  1  0
 17 29  1  0
 18 30  1  0
 19 31  1  0
 19 32  1  0
M  END
>  <Energy>  (1391) 
35.913561937491401

>  <compound_id>  (1391) 
50699

>  <target_id>  (1391) 
1

>  <reference_id>  (1391) 
146

>  <inspiration_ids>  (1391) 
[96, 146]

>  <energy_score>  (1391) 
-30.159325260281662

>  <distance_score>  (1391) 
15.138573890641656

>  <path>  (1391) 
/opt/xchem-fragalysis-2/maxwin/BulkDock/SCRATCH/511022/C50699-P146/C50699-P146.minimised.mol

>  <scratch_subdir>  (1391) 
/opt/xchem-fragalysis-2/maxwin/BulkDock/SCRATCH/511022/C50699-P146

>  <fragmenstein_runtime>  (1391) 
23.069437742233276

>  <fragmenstein_outcome>  (1391) 
too moved

>  <fragmenstein_mode>  (1391) 
expansion

>  <fragmenstein_error>  (1391) 


$$$$
C50700-P96
     RDKit          3D

 35 37  0  0  0  0  0  0  0  0999 V2000
    2.8344  -16.7909   23.0861 O   0  0  0  0  0  0  0  0  0  0  0  0
    3.0058  -15.7792   23.6911 C   0  0  0  0  0  0  0  0  0  0  0  0
    4.2276  -14.4946   22.6608 C   0  0  0  0  0  0  0  0  0  0  0  0
    4.2175  -14.0295   21.1233 N   0  0  0  0  0  0  0  0  0  0  0  0
    5.1422  -14.5272   20.1840 C   0  0  0  0  0  0  0  0  0  0  0  0
    5.6171  -13.4767   19.4354 C   0  0  0  0  0  0  0  0  0  0  0  0
    6.7781  -13.5047   18.2086 Cl  0  0  0  0  0  0  0  0  0  0  0  0
    4.9280  -12.3591   19.9135 C   0  0  0  0  0  0  0  0  0  0  0  0
    4.0728  -12.6604   20.9007 N   0  0  0  0  0  0  0  0  0  0  0  0
    2.2082  -15.2988   25.1246 N   0  0  0  0  0  0  0  0  0  0  0  0
    0.7687  -16.0580   26.0327 C   0  0  0  0  0  0  0  0  0  0  0  0
   -0.9035  -17.1794   26.1573 C   0  0  0  0  0  0  0  0  0  0  0  0
   -0.9103  -18.3829   27.4593 C   0  0  0  0  0  0  0  0  0  0  0  0
   -1.9358  -19.3277   27.9410 C   0  0  0  0  0  0  0  0  0  0  0  0
   -3.0307  -19.4660   27.1321 C   0  0  0  0  0  0  0  0  0  0  0  0
   -3.0170  -18.6669   25.9537 C   0  0  0  0  0  0  0  0  0  0  0  0
   -2.0833  -17.4476   25.5100 C   0  0  0  0  0  0  0  0  0  0  0  0
   -3.8701  -19.4440   24.9066 C   0  0  0  0  0  0  0  0  0  0  0  0
   -3.8945  -20.8262   25.4434 N   0  0  0  0  0  0  0  0  0  0  0  0
   -3.8988  -20.6639   26.9015 C   0  0  0  0  0  0  0  0  0  0  0  0
    5.3417  -14.4998   22.6341 H   0  0  0  0  0  0  0  0  0  0  0  0
    3.9907  -13.4520   23.0196 H   0  0  0  0  0  0  0  0  0  0  0  0
    5.3974  -15.5763   20.2007 H   0  0  0  0  0  0  0  0  0  0  0  0
    5.0014  -11.3305   19.5873 H   0  0  0  0  0  0  0  0  0  0  0  0
    2.6113  -14.4597   25.4611 H   0  0  0  0  0  0  0  0  0  0  0  0
    0.4894  -15.2570   26.6595 H   0  0  0  0  0  0  0  0  0  0  0  0
    0.3454  -16.6091   25.1721 H   0  0  0  0  0  0  0  0  0  0  0  0
   -0.1800  -18.2600   28.2713 H   0  0  0  0  0  0  0  0  0  0  0  0
   -1.7537  -19.9446   28.8117 H   0  0  0  0  0  0  0  0  0  0  0  0
   -2.3030  -17.0945   24.5200 H   0  0  0  0  0  0  0  0  0  0  0  0
   -4.9006  -19.0808   24.8453 H   0  0  0  0  0  0  0  0  0  0  0  0
   -3.3962  -19.4321   23.9211 H   0  0  0  0  0  0  0  0  0  0  0  0
   -4.7280  -21.3126   25.1219 H   0  0  0  0  0  0  0  0  0  0  0  0
   -4.9259  -20.4896   27.2149 H   0  0  0  0  0  0  0  0  0  0  0  0
   -3.4876  -21.5529   27.3831 H   0  0  0  0  0  0  0  0  0  0  0  0
  1  2  2  0
  2  3  1  0
  3  4  1  0
  4  5  1  0
  5  6  2  0
  6  7  1  0
  6  8  1  0
  8  9  2  0
  2 10  1  0
 10 11  1  0
 11 12  1  0
 12 13  2  0
 13 14  1  0
 14 15  2  0
 15 16  1  0
 16 17  2  0
 16 18  1  0
 18 19  1  0
 19 20  1  0
  9  4  1  0
 17 12  1  0
 20 15  1  0
  3 21  1  0
  3 22  1  0
  5 23  1  0
  8 24  1  0
 10 25  1  0
 11 26  1  0
 11 27  1  0
 13 28  1  0
 14 29  1  0
 17 30  1  0
 18 31  1  0
 18 32  1  0
 19 33  1  0
 20 34  1  0
 20 35  1  0
M  END
>  <Energy>  (1392) 
460.77343201181316

>  <compound_id>  (1392) 
50700

>  <target_id>  (1392) 
1

>  <reference_id>  (1392) 
96

>  <inspiration_ids>  (1392) 
[96, 146]

>  <energy_score>  (1392) 
410.5713286591817

>  <distance_score>  (1392) 
17.10528520496353

>  <path>  (1392) 
/opt/xchem-fragalysis-2/maxwin/BulkDock/SCRATCH/511022/C50700-P96/C50700-P96.minimised.mol

>  <scratch_subdir>  (1392) 
/opt/xchem-fragalysis-2/maxwin/BulkDock/SCRATCH/511022/C50700-P96

>  <fragmenstein_runtime>  (1392) 
13.415821552276611

>  <fragmenstein_outcome>  (1392) 
too moved

>  <fragmenstein_mode>  (1392) 
expansion

>  <fragmenstein_error>  (1392) 


$$$$
C50700-P146
     RDKit          3D

 35 37  0  0  0  0  0  0  0  0999 V2000
   -1.3360  -16.9378   27.0677 O   0  0  0  0  0  0  0  0  0  0  0  0
   -1.7405  -16.1340   27.8864 C   0  0  0  0  0  0  0  0  0  0  0  0
   -1.4142  -14.2447   27.3879 C   0  0  0  0  0  0  0  0  0  0  0  0
   -0.4400  -13.1016   26.1610 N   0  0  0  0  0  0  0  0  0  0  0  0
    1.2097  -13.0574   25.1908 C   0  0  0  0  0  0  0  0  0  0  0  0
    1.4891  -12.2600   24.1645 C   0  0  0  0  0  0  0  0  0  0  0  0
    2.9187  -11.8717   23.3912 Cl  0  0  0  0  0  0  0  0  0  0  0  0
    0.3848  -12.9046   23.7797 C   0  0  0  0  0  0  0  0  0  0  0  0
   -0.7150  -13.0075   24.5823 N   0  0  0  0  0  0  0  0  0  0  0  0
   -2.6596  -16.4819   29.3096 N   0  0  0  0  0  0  0  0  0  0  0  0
   -3.3969  -18.0740   29.9252 C   0  0  0  0  0  0  0  0  0  0  0  0
   -4.7089  -18.7210   31.1532 C   0  0  0  0  0  0  0  0  0  0  0  0
   -4.2442  -19.5840   32.0830 C   0  0  0  0  0  0  0  0  0  0  0  0
   -5.2915  -19.9194   33.2766 C   0  0  0  0  0  0  0  0  0  0  0  0
   -6.6419  -20.0039   33.9019 C   0  0  0  0  0  0  0  0  0  0  0  0
   -7.2396  -19.5808   32.8394 C   0  0  0  0  0  0  0  0  0  0  0  0
   -6.2965  -19.0091   31.4600 C   0  0  0  0  0  0  0  0  0  0  0  0
   -8.8919  -19.9615   33.6025 C   0  0  0  0  0  0  0  0  0  0  0  0
   -9.1079  -19.5274   34.9356 N   0  0  0  0  0  0  0  0  0  0  0  0
   -7.7513  -19.1801   35.0436 C   0  0  0  0  0  0  0  0  0  0  0  0
   -2.2734  -13.9269   26.8067 H   0  0  0  0  0  0  0  0  0  0  0  0
   -1.4149  -13.7554   28.3565 H   0  0  0  0  0  0  0  0  0  0  0  0
    1.7370  -13.7632   25.8429 H   0  0  0  0  0  0  0  0  0  0  0  0
    0.1218  -13.3334   22.8525 H   0  0  0  0  0  0  0  0  0  0  0  0
   -2.7813  -15.6324   29.8453 H   0  0  0  0  0  0  0  0  0  0  0  0
   -2.9111  -17.7668   30.8556 H   0  0  0  0  0  0  0  0  0  0  0  0
   -4.2874  -17.7469   29.3823 H   0  0  0  0  0  0  0  0  0  0  0  0
   -3.2145  -19.9074   32.1677 H   0  0  0  0  0  0  0  0  0  0  0  0
   -5.3732  -18.7975   33.1913 H   0  0  0  0  0  0  0  0  0  0  0  0
   -6.8809  -19.0934   30.5890 H   0  0  0  0  0  0  0  0  0  0  0  0
   -8.8653  -21.0425   33.8703 H   0  0  0  0  0  0  0  0  0  0  0  0
   -9.8124  -19.8541   33.0602 H   0  0  0  0  0  0  0  0  0  0  0  0
   -9.7290  -18.7179   34.9298 H   0  0  0  0  0  0  0  0  0  0  0  0
   -7.9768  -18.1417   34.6766 H   0  0  0  0  0  0  0  0  0  0  0  0
   -7.3842  -19.2005   36.0858 H   0  0  0  0  0  0  0  0  0  0  0  0
  1  2  2  0
  2  3  1  0
  3  4  1  0
  4  5  1  0
  5  6  2  0
  6  7  1  0
  6  8  1  0
  8  9  2  0
  2 10  1  0
 10 11  1  0
 11 12  1  0
 12 13  2  0
 13 14  1  0
 14 15  2  0
 15 16  1  0
 16 17  2  0
 16 18  1  0
 18 19  1  0
 19 20  1  0
  9  4  1  0
 17 12  1  0
 20 15  1  0
  3 21  1  0
  3 22  1  0
  5 23  1  0
  8 24  1  0
 10 25  1  0
 11 26  1  0
 11 27  1  0
 13 28  1  0
 14 29  1  0
 17 30  1  0
 18 31  1  0
 18 32  1  0
 19 33  1  0
 20 34  1  0
 20 35  1  0
M  END
>  <Energy>  (1393) 
946.38491529264695

>  <compound_id>  (1393) 
50700

>  <target_id>  (1393) 
1

>  <reference_id>  (1393) 
146

>  <inspiration_ids>  (1393) 
[96, 146]

>  <energy_score>  (1393) 
896.1828119400166

>  <distance_score>  (1393) 
19.80254228737032

>  <path>  (1393) 
/opt/xchem-fragalysis-2/maxwin/BulkDock/SCRATCH/511022/C50700-P146/C50700-P146.minimised.mol

>  <scratch_subdir>  (1393) 
/opt/xchem-fragalysis-2/maxwin/BulkDock/SCRATCH/511022/C50700-P146

>  <fragmenstein_runtime>  (1393) 
10.450628757476807

>  <fragmenstein_outcome>  (1393) 
too moved

>  <fragmenstein_mode>  (1393) 
expansion

>  <fragmenstein_error>  (1393) 


$$$$
C50705-P96
     RDKit          3D

 42 44  0  0  0  0  0  0  0  0999 V2000
    3.0359  -16.0057   23.8890 C   0  0  0  0  0  0  0  0  0  0  0  0
    2.9584  -15.7738   22.4528 N   0  0  0  0  0  0  0  0  0  0  0  0
    3.2443  -13.9255   21.7450 C   0  0  0  0  0  0  0  0  0  0  0  0
    2.3667  -12.3502   20.9554 C   0  0  0  0  0  0  0  0  0  0  0  0
    2.5881  -12.1218   19.2880 C   0  0  0  0  0  0  0  0  0  0  0  0
    3.6977  -11.3847   18.3503 C   0  0  0  0  0  0  0  0  0  0  0  0
    4.0557  -10.1196   18.7060 C   0  0  0  0  0  0  0  0  0  0  0  0
    3.2411   -9.6539   19.8507 C   0  0  0  0  0  0  0  0  0  0  0  0
    2.4502  -10.8035   20.9892 C   0  0  0  0  0  0  0  0  0  0  0  0
    3.3125   -8.1200   19.7279 C   0  0  0  0  0  0  0  0  0  0  0  0
    4.6604   -7.6035   20.0519 N   0  0  0  0  0  0  0  0  0  0  0  0
    5.6494   -8.5887   19.5609 C   0  0  0  0  0  0  0  0  0  0  0  0
    5.2081   -9.3117   18.2605 C   0  0  0  0  0  0  0  0  0  0  0  0
    2.7098  -17.7382   22.0782 C   0  0  0  0  0  0  0  0  0  0  0  0
    0.6611  -18.4846   22.3563 C   0  0  0  0  0  0  0  0  0  0  0  0
   -0.7101  -18.1526   22.1009 C   0  0  0  0  0  0  0  0  0  0  0  0
   -1.7370  -19.0101   22.4005 N   0  0  0  0  0  0  0  0  0  0  0  0
   -1.2797  -20.1524   22.7500 N   0  0  0  0  0  0  0  0  0  0  0  0
   -2.1392  -21.2885   22.9456 C   0  0  0  0  0  0  0  0  0  0  0  0
    0.0590  -20.0899   22.6084 C   0  0  0  0  0  0  0  0  0  0  0  0
    2.9551  -15.2739   24.6865 H   0  0  0  0  0  0  0  0  0  0  0  0
    2.0818  -16.4103   23.8191 H   0  0  0  0  0  0  0  0  0  0  0  0
    3.6646  -16.8302   24.2326 H   0  0  0  0  0  0  0  0  0  0  0  0
    3.9256  -13.4783   22.4822 H   0  0  0  0  0  0  0  0  0  0  0  0
    2.2145  -13.7115   21.9265 H   0  0  0  0  0  0  0  0  0  0  0  0
    1.9093  -12.7477   18.6659 H   0  0  0  0  0  0  0  0  0  0  0  0
    3.8981  -11.7837   17.3576 H   0  0  0  0  0  0  0  0  0  0  0  0
    1.6834  -10.3990   21.6525 H   0  0  0  0  0  0  0  0  0  0  0  0
    3.1573   -7.8604   18.6664 H   0  0  0  0  0  0  0  0  0  0  0  0
    2.4669   -7.5915   20.1219 H   0  0  0  0  0  0  0  0  0  0  0  0
    4.7422   -6.7078   19.5714 H   0  0  0  0  0  0  0  0  0  0  0  0
    6.6433   -8.2056   19.5038 H   0  0  0  0  0  0  0  0  0  0  0  0
    5.8449   -9.2704   20.3917 H   0  0  0  0  0  0  0  0  0  0  0  0
    4.9644   -8.6221   17.4475 H   0  0  0  0  0  0  0  0  0  0  0  0
    5.9466  -10.0356   17.9192 H   0  0  0  0  0  0  0  0  0  0  0  0
    3.4164  -18.1102   22.8197 H   0  0  0  0  0  0  0  0  0  0  0  0
    2.8058  -17.8242   20.9952 H   0  0  0  0  0  0  0  0  0  0  0  0
   -0.8971  -17.4066   21.3333 H   0  0  0  0  0  0  0  0  0  0  0  0
   -2.9302  -21.0129   23.6477 H   0  0  0  0  0  0  0  0  0  0  0  0
   -2.5689  -21.5705   21.9812 H   0  0  0  0  0  0  0  0  0  0  0  0
   -1.5545  -22.1166   23.3536 H   0  0  0  0  0  0  0  0  0  0  0  0
    0.4989  -21.0718   22.5741 H   0  0  0  0  0  0  0  0  0  0  0  0
  1  2  1  0
  2  3  1  0
  3  4  1  0
  4  5  2  0
  5  6  1  0
  6  7  2  0
  7  8  1  0
  8  9  2  0
  8 10  1  0
 10 11  1  0
 11 12  1  0
 12 13  1  0
  2 14  1  0
 14 15  1  0
 15 16  1  0
 16 17  2  0
 17 18  1  0
 18 19  1  0
 18 20  1  0
  9  4  1  0
 20 15  2  0
 13  7  1  0
  1 21  1  0
  1 22  1  0
  1 23  1  0
  3 24  1  0
  3 25  1  0
  5 26  1  0
  6 27  1  0
  9 28  1  0
 10 29  1  0
 10 30  1  0
 11 31  1  0
 12 32  1  0
 12 33  1  0
 13 34  1  0
 13 35  1  0
 14 36  1  0
 14 37  1  0
 16 38  1  0
 19 39  1  0
 19 40  1  0
 19 41  1  0
 20 42  1  0
M  END
>  <Energy>  (1394) 
850.29681129395226

>  <compound_id>  (1394) 
50705

>  <target_id>  (1394) 
1

>  <reference_id>  (1394) 
96

>  <inspiration_ids>  (1394) 
[96, 146]

>  <energy_score>  (1394) 
769.4572150710342

>  <distance_score>  (1394) 
13.246252953658535

>  <path>  (1394) 
/opt/xchem-fragalysis-2/maxwin/BulkDock/SCRATCH/511022/C50705-P96/C50705-P96.minimised.mol

>  <scratch_subdir>  (1394) 
/opt/xchem-fragalysis-2/maxwin/BulkDock/SCRATCH/511022/C50705-P96

>  <fragmenstein_runtime>  (1394) 
18.607415199279785

>  <fragmenstein_outcome>  (1394) 
too moved

>  <fragmenstein_mode>  (1394) 
expansion

>  <fragmenstein_error>  (1394) 


$$$$
C50705-P146
     RDKit          3D

 42 44  0  0  0  0  0  0  0  0999 V2000
    2.0579  -16.4468   17.3162 C   0  0  0  0  0  0  0  0  0  0  0  0
    3.1104  -17.2653   17.9344 N   0  0  0  0  0  0  0  0  0  0  0  0
    4.4281  -16.4926   17.8928 C   0  0  0  0  0  0  0  0  0  0  0  0
    5.6253  -16.0395   19.1361 C   0  0  0  0  0  0  0  0  0  0  0  0
    7.0700  -16.7342   19.8093 C   0  0  0  0  0  0  0  0  0  0  0  0
    8.4415  -15.8161   20.0674 C   0  0  0  0  0  0  0  0  0  0  0  0
    8.4088  -14.2577   19.9503 C   0  0  0  0  0  0  0  0  0  0  0  0
    7.0851  -13.5158   19.6691 C   0  0  0  0  0  0  0  0  0  0  0  0
    5.7188  -14.2891   19.2867 C   0  0  0  0  0  0  0  0  0  0  0  0
    7.1565  -12.0290   19.3568 C   0  0  0  0  0  0  0  0  0  0  0  0
    8.4494  -11.3452   19.5504 N   0  0  0  0  0  0  0  0  0  0  0  0
    9.5691  -12.1759   19.1100 C   0  0  0  0  0  0  0  0  0  0  0  0
    9.6830  -13.4372   19.9814 C   0  0  0  0  0  0  0  0  0  0  0  0
    3.1246  -18.6007   17.2223 C   0  0  0  0  0  0  0  0  0  0  0  0
    2.0892  -19.6405   17.7022 C   0  0  0  0  0  0  0  0  0  0  0  0
    0.7902  -19.9247   17.1740 C   0  0  0  0  0  0  0  0  0  0  0  0
    0.1756  -20.9597   17.7654 N   0  0  0  0  0  0  0  0  0  0  0  0
    1.0551  -21.3478   18.7051 N   0  0  0  0  0  0  0  0  0  0  0  0
    0.7176  -22.4126   19.6159 C   0  0  0  0  0  0  0  0  0  0  0  0
    2.2313  -20.6477   18.6531 C   0  0  0  0  0  0  0  0  0  0  0  0
    2.0003  -15.4666   17.7948 H   0  0  0  0  0  0  0  0  0  0  0  0
    1.0737  -16.9114   17.4218 H   0  0  0  0  0  0  0  0  0  0  0  0
    2.2445  -16.2787   16.2487 H   0  0  0  0  0  0  0  0  0  0  0  0
    4.1702  -15.4801   17.5461 H   0  0  0  0  0  0  0  0  0  0  0  0
    4.9590  -16.9334   17.0341 H   0  0  0  0  0  0  0  0  0  0  0  0
    7.3812  -17.7545   19.8156 H   0  0  0  0  0  0  0  0  0  0  0  0
    9.3756  -16.3443   20.2476 H   0  0  0  0  0  0  0  0  0  0  0  0
    4.8827  -13.7175   18.8866 H   0  0  0  0  0  0  0  0  0  0  0  0
    6.8299  -11.8762   18.3226 H   0  0  0  0  0  0  0  0  0  0  0  0
    6.4556  -11.5722   20.0397 H   0  0  0  0  0  0  0  0  0  0  0  0
    8.4418  -10.4914   18.9963 H   0  0  0  0  0  0  0  0  0  0  0  0
   10.4959  -11.5999   19.2026 H   0  0  0  0  0  0  0  0  0  0  0  0
    9.4562  -12.4403   18.0511 H   0  0  0  0  0  0  0  0  0  0  0  0
   10.5150  -14.0481   19.6142 H   0  0  0  0  0  0  0  0  0  0  0  0
    9.8953  -13.1685   21.0228 H   0  0  0  0  0  0  0  0  0  0  0  0
    2.9961  -18.4524   16.1412 H   0  0  0  0  0  0  0  0  0  0  0  0
    4.0991  -19.0827   17.3192 H   0  0  0  0  0  0  0  0  0  0  0  0
    0.2752  -19.4106   16.3728 H   0  0  0  0  0  0  0  0  0  0  0  0
   -0.1791  -22.1215   20.1686 H   0  0  0  0  0  0  0  0  0  0  0  0
    0.5339  -23.3191   19.0340 H   0  0  0  0  0  0  0  0  0  0  0  0
    1.5460  -22.5746   20.3099 H   0  0  0  0  0  0  0  0  0  0  0  0
    3.0551  -20.9073   19.3036 H   0  0  0  0  0  0  0  0  0  0  0  0
  1  2  1  0
  2  3  1  0
  3  4  1  0
  4  5  2  0
  5  6  1  0
  6  7  2  0
  7  8  1  0
  8  9  2  0
  8 10  1  0
 10 11  1  0
 11 12  1  0
 12 13  1  0
  2 14  1  0
 14 15  1  0
 15 16  1  0
 16 17  2  0
 17 18  1  0
 18 19  1  0
 18 20  1  0
  9  4  1  0
 20 15  2  0
 13  7  1  0
  1 21  1  0
  1 22  1  0
  1 23  1  0
  3 24  1  0
  3 25  1  0
  5 26  1  0
  6 27  1  0
  9 28  1  0
 10 29  1  0
 10 30  1  0
 11 31  1  0
 12 32  1  0
 12 33  1  0
 13 34  1  0
 13 35  1  0
 14 36  1  0
 14 37  1  0
 16 38  1  0
 19 39  1  0
 19 40  1  0
 19 41  1  0
 20 42  1  0
M  END
>  <Energy>  (1395) 
230.99196962846037

>  <compound_id>  (1395) 
50705

>  <target_id>  (1395) 
1

>  <reference_id>  (1395) 
146

>  <inspiration_ids>  (1395) 
[96, 146]

>  <energy_score>  (1395) 
150.15237340553915

>  <distance_score>  (1395) 
15.131290157020013

>  <path>  (1395) 
/opt/xchem-fragalysis-2/maxwin/BulkDock/SCRATCH/511022/C50705-P146/C50705-P146.minimised.mol

>  <scratch_subdir>  (1395) 
/opt/xchem-fragalysis-2/maxwin/BulkDock/SCRATCH/511022/C50705-P146

>  <fragmenstein_runtime>  (1395) 
17.46800971031189

>  <fragmenstein_outcome>  (1395) 
too moved

>  <fragmenstein_mode>  (1395) 
expansion

>  <fragmenstein_error>  (1395) 


$$$$
C50710-P96
     RDKit          3D

 38 40  0  0  0  0  0  0  0  0999 V2000
    2.8089  -22.2348   17.7236 C   0  0  0  0  0  0  0  0  0  0  0  0
    4.1698  -21.8508   17.9903 N   0  0  0  0  0  0  0  0  0  0  0  0
    5.0357  -21.2291   17.1265 C   0  0  0  0  0  0  0  0  0  0  0  0
    6.2580  -21.1200   17.7799 C   0  0  0  0  0  0  0  0  0  0  0  0
    7.8411  -20.5549   17.1814 S   0  0  0  0  0  0  0  0  0  0  0  0
    8.7325  -20.8429   18.2821 O   0  0  0  0  0  0  0  0  0  0  0  0
    7.9319  -21.3244   15.9523 O   0  0  0  0  0  0  0  0  0  0  0  0
    8.1664  -18.9646   16.6350 N   0  0  0  0  0  0  0  0  0  0  0  0
    8.8385  -17.8027   17.3244 C   0  0  0  0  0  0  0  0  0  0  0  0
    9.2344  -17.6889   18.4542 O   0  0  0  0  0  0  0  0  0  0  0  0
    9.2018  -16.5520   16.4415 C   0  0  0  0  0  0  0  0  0  0  0  0
    9.8745  -16.6583   15.2205 C   0  0  0  0  0  0  0  0  0  0  0  0
   10.4292  -15.5173   14.5627 C   0  0  0  0  0  0  0  0  0  0  0  0
   10.3325  -14.2178   15.0875 C   0  0  0  0  0  0  0  0  0  0  0  0
    9.6373  -14.0546   16.2869 C   0  0  0  0  0  0  0  0  0  0  0  0
    9.1257  -15.2264   16.9593 C   0  0  0  0  0  0  0  0  0  0  0  0
    9.4856  -12.6572   16.8670 C   0  0  0  0  0  0  0  0  0  0  0  0
    9.6952  -11.5491   15.9162 N   0  0  0  0  0  0  0  0  0  0  0  0
   10.9637  -11.7436   15.2043 C   0  0  0  0  0  0  0  0  0  0  0  0
   10.9218  -13.0238   14.3548 C   0  0  0  0  0  0  0  0  0  0  0  0
    6.0258  -21.8580   18.9766 C   0  0  0  0  0  0  0  0  0  0  0  0
    4.7540  -22.2527   19.1267 N   0  0  0  0  0  0  0  0  0  0  0  0
    2.1904  -21.9157   18.5644 H   0  0  0  0  0  0  0  0  0  0  0  0
    2.7718  -23.3216   17.6148 H   0  0  0  0  0  0  0  0  0  0  0  0
    2.4797  -21.7565   16.7988 H   0  0  0  0  0  0  0  0  0  0  0  0
    4.7252  -20.9426   16.1320 H   0  0  0  0  0  0  0  0  0  0  0  0
    8.0425  -18.7446   15.6524 H   0  0  0  0  0  0  0  0  0  0  0  0
   10.0569  -17.6381   14.7822 H   0  0  0  0  0  0  0  0  0  0  0  0
   10.9651  -15.6747   13.6259 H   0  0  0  0  0  0  0  0  0  0  0  0
    8.6394  -15.1218   17.9220 H   0  0  0  0  0  0  0  0  0  0  0  0
   10.1787  -12.5465   17.7087 H   0  0  0  0  0  0  0  0  0  0  0  0
    8.4654  -12.5489   17.2463 H   0  0  0  0  0  0  0  0  0  0  0  0
    8.9379  -11.5745   15.2319 H   0  0  0  0  0  0  0  0  0  0  0  0
   11.7892  -11.7888   15.9256 H   0  0  0  0  0  0  0  0  0  0  0  0
   11.1567  -10.8803   14.5581 H   0  0  0  0  0  0  0  0  0  0  0  0
   11.9383  -13.2643   14.0224 H   0  0  0  0  0  0  0  0  0  0  0  0
   10.3081  -12.8455   13.4627 H   0  0  0  0  0  0  0  0  0  0  0  0
    6.7451  -22.1385   19.7376 H   0  0  0  0  0  0  0  0  0  0  0  0
  1  2  1  0
  2  3  1  0
  3  4  2  0
  4  5  1  0
  5  6  2  0
  5  7  2  0
  5  8  1  0
  8  9  1  0
  9 10  2  0
  9 11  1  0
 11 12  2  0
 12 13  1  0
 13 14  2  0
 14 15  1  0
 15 16  2  0
 15 17  1  0
 17 18  1  0
 18 19  1  0
 19 20  1  0
  4 21  1  0
 21 22  2  0
 22  2  1  0
 16 11  1  0
 20 14  1  0
  1 23  1  0
  1 24  1  0
  1 25  1  0
  3 26  1  0
  8 27  1  0
 12 28  1  0
 13 29  1  0
 16 30  1  0
 17 31  1  0
 17 32  1  0
 18 33  1  0
 19 34  1  0
 19 35  1  0
 20 36  1  0
 20 37  1  0
 21 38  1  0
M  END
>  <Energy>  (1396) 
-9.3037570642624274

>  <compound_id>  (1396) 
50710

>  <target_id>  (1396) 
1

>  <reference_id>  (1396) 
96

>  <inspiration_ids>  (1396) 
[96, 146]

>  <energy_score>  (1396) 
-5.442363513059945

>  <distance_score>  (1396) 
15.594439255046257

>  <path>  (1396) 
/opt/xchem-fragalysis-2/maxwin/BulkDock/SCRATCH/511022/C50710-P96/C50710-P96.minimised.mol

>  <scratch_subdir>  (1396) 
/opt/xchem-fragalysis-2/maxwin/BulkDock/SCRATCH/511022/C50710-P96

>  <fragmenstein_runtime>  (1396) 
17.290021181106567

>  <fragmenstein_outcome>  (1396) 
too moved

>  <fragmenstein_mode>  (1396) 
expansion

>  <fragmenstein_error>  (1396) 


$$$$
C50710-P146
     RDKit          3D

 38 40  0  0  0  0  0  0  0  0999 V2000
   -4.8699  -11.9247   26.5609 C   0  0  0  0  0  0  0  0  0  0  0  0
   -3.5612  -12.5100   26.3995 N   0  0  0  0  0  0  0  0  0  0  0  0
   -2.5222  -12.0070   25.6794 C   0  0  0  0  0  0  0  0  0  0  0  0
   -1.3738  -12.9756   25.6070 C   0  0  0  0  0  0  0  0  0  0  0  0
    0.5050  -12.6828   24.2276 S   0  0  0  0  0  0  0  0  0  0  0  0
    0.7762  -13.9511   23.6409 O   0  0  0  0  0  0  0  0  0  0  0  0
    0.2495  -11.7507   23.1887 O   0  0  0  0  0  0  0  0  0  0  0  0
    2.0533  -11.5529   24.5842 N   0  0  0  0  0  0  0  0  0  0  0  0
    3.2631  -11.3229   23.8168 C   0  0  0  0  0  0  0  0  0  0  0  0
    3.6509  -11.8324   22.8187 O   0  0  0  0  0  0  0  0  0  0  0  0
    4.1501  -10.0180   24.4617 C   0  0  0  0  0  0  0  0  0  0  0  0
    5.4186  -10.1144   25.0959 C   0  0  0  0  0  0  0  0  0  0  0  0
    6.1824   -8.9749   25.5111 C   0  0  0  0  0  0  0  0  0  0  0  0
    5.8264   -7.6825   25.0814 C   0  0  0  0  0  0  0  0  0  0  0  0
    4.6092   -7.5216   24.3941 C   0  0  0  0  0  0  0  0  0  0  0  0
    3.7608   -8.6712   24.1757 C   0  0  0  0  0  0  0  0  0  0  0  0
    4.3506   -6.2390   23.6066 C   0  0  0  0  0  0  0  0  0  0  0  0
    5.2661   -5.1138   23.8753 N   0  0  0  0  0  0  0  0  0  0  0  0
    6.6476   -5.5922   23.9310 C   0  0  0  0  0  0  0  0  0  0  0  0
    6.8239   -6.5427   25.1243 C   0  0  0  0  0  0  0  0  0  0  0  0
   -2.0350  -13.9257   26.5894 C   0  0  0  0  0  0  0  0  0  0  0  0
   -3.2714  -13.6326   27.0233 N   0  0  0  0  0  0  0  0  0  0  0  0
   -5.0169  -11.6933   27.6189 H   0  0  0  0  0  0  0  0  0  0  0  0
   -5.6151  -12.6465   26.2169 H   0  0  0  0  0  0  0  0  0  0  0  0
   -4.9367  -11.0105   25.9659 H   0  0  0  0  0  0  0  0  0  0  0  0
   -2.6546  -11.0555   25.1839 H   0  0  0  0  0  0  0  0  0  0  0  0
    2.0104  -10.8974   25.3138 H   0  0  0  0  0  0  0  0  0  0  0  0
    5.8708  -11.0950   25.2292 H   0  0  0  0  0  0  0  0  0  0  0  0
    7.1529   -9.1455   25.9717 H   0  0  0  0  0  0  0  0  0  0  0  0
    2.8698   -8.5077   23.5814 H   0  0  0  0  0  0  0  0  0  0  0  0
    4.4406   -6.4747   22.5428 H   0  0  0  0  0  0  0  0  0  0  0  0
    3.3248   -5.9062   23.7982 H   0  0  0  0  0  0  0  0  0  0  0  0
    5.1643   -4.4374   23.1210 H   0  0  0  0  0  0  0  0  0  0  0  0
    7.3234   -4.7382   24.0466 H   0  0  0  0  0  0  0  0  0  0  0  0
    6.9066   -6.0930   22.9938 H   0  0  0  0  0  0  0  0  0  0  0  0
    6.6878   -6.0006   26.0680 H   0  0  0  0  0  0  0  0  0  0  0  0
    7.8466   -6.9374   25.1097 H   0  0  0  0  0  0  0  0  0  0  0  0
   -1.7631  -14.8507   27.0655 H   0  0  0  0  0  0  0  0  0  0  0  0
  1  2  1  0
  2  3  1  0
  3  4  2  0
  4  5  1  0
  5  6  2  0
  5  7  2  0
  5  8  1  0
  8  9  1  0
  9 10  2  0
  9 11  1  0
 11 12  2  0
 12 13  1  0
 13 14  2  0
 14 15  1  0
 15 16  2  0
 15 17  1  0
 17 18  1  0
 18 19  1  0
 19 20  1  0
  4 21  1  0
 21 22  2  0
 22  2  1  0
 16 11  1  0
 20 14  1  0
  1 23  1  0
  1 24  1  0
  1 25  1  0
  3 26  1  0
  8 27  1  0
 12 28  1  0
 13 29  1  0
 16 30  1  0
 17 31  1  0
 17 32  1  0
 18 33  1  0
 19 34  1  0
 19 35  1  0
 20 36  1  0
 20 37  1  0
 21 38  1  0
M  END
>  <Energy>  (1397) 
194.93866190357704

>  <compound_id>  (1397) 
50710

>  <target_id>  (1397) 
1

>  <reference_id>  (1397) 
146

>  <inspiration_ids>  (1397) 
[96, 146]

>  <energy_score>  (1397) 
198.80005545477673

>  <distance_score>  (1397) 
13.696888465480962

>  <path>  (1397) 
/opt/xchem-fragalysis-2/maxwin/BulkDock/SCRATCH/511022/C50710-P146/C50710-P146.minimised.mol

>  <scratch_subdir>  (1397) 
/opt/xchem-fragalysis-2/maxwin/BulkDock/SCRATCH/511022/C50710-P146

>  <fragmenstein_runtime>  (1397) 
35.74908447265625

>  <fragmenstein_outcome>  (1397) 
too moved

>  <fragmenstein_mode>  (1397) 
expansion

>  <fragmenstein_error>  (1397) 


$$$$
C50711-P96
     RDKit          3D

 35 37  0  0  0  0  0  0  0  0999 V2000
    4.2698  -17.2518   23.5023 C   0  0  0  0  0  0  0  0  0  0  0  0
    4.4950  -15.9543   24.1834 C   0  0  0  0  0  0  0  0  0  0  0  0
    3.9196  -15.6376   25.3825 N   0  0  0  0  0  0  0  0  0  0  0  0
    4.2283  -14.4130   25.8292 N   0  0  0  0  0  0  0  0  0  0  0  0
    5.0736  -13.9479   24.9006 C   0  0  0  0  0  0  0  0  0  0  0  0
    5.2782  -14.8540   23.8514 C   0  0  0  0  0  0  0  0  0  0  0  0
    6.3636  -14.7159   22.5154 S   0  0  0  0  0  0  0  0  0  0  0  0
    7.4904  -15.5245   22.9278 O   0  0  0  0  0  0  0  0  0  0  0  0
    5.5451  -15.1314   21.3932 O   0  0  0  0  0  0  0  0  0  0  0  0
    6.9511  -13.2573   22.0332 N   0  0  0  0  0  0  0  0  0  0  0  0
    7.9346  -12.3659   22.6513 C   0  0  0  0  0  0  0  0  0  0  0  0
    8.4975  -12.4393   23.7060 O   0  0  0  0  0  0  0  0  0  0  0  0
    8.3215  -11.2572   21.7110 C   0  0  0  0  0  0  0  0  0  0  0  0
    9.4396  -10.4192   21.7996 C   0  0  0  0  0  0  0  0  0  0  0  0
    9.6234   -9.5724   20.6553 C   0  0  0  0  0  0  0  0  0  0  0  0
    8.6065   -9.7484   19.7448 C   0  0  0  0  0  0  0  0  0  0  0  0
    7.4580  -10.9050   20.2612 S   0  0  0  0  0  0  0  0  0  0  0  0
    8.4813   -9.0259   18.4402 C   0  0  0  0  0  0  0  0  0  0  0  0
    9.5482   -8.0459   18.1944 N   0  0  0  0  0  0  0  0  0  0  0  0
   10.2584   -7.5292   19.3726 C   0  0  0  0  0  0  0  0  0  0  0  0
   10.7417   -8.6178   20.3508 C   0  0  0  0  0  0  0  0  0  0  0  0
    4.5264  -18.0846   24.1604 H   0  0  0  0  0  0  0  0  0  0  0  0
    3.2436  -17.3189   23.1705 H   0  0  0  0  0  0  0  0  0  0  0  0
    4.9030  -17.3544   22.6165 H   0  0  0  0  0  0  0  0  0  0  0  0
    3.3286  -16.2029   25.9712 H   0  0  0  0  0  0  0  0  0  0  0  0
    5.5184  -12.9717   25.0464 H   0  0  0  0  0  0  0  0  0  0  0  0
    6.7482  -12.9284   21.0926 H   0  0  0  0  0  0  0  0  0  0  0  0
   10.1328  -10.4722   22.6334 H   0  0  0  0  0  0  0  0  0  0  0  0
    8.4930   -9.7488   17.6164 H   0  0  0  0  0  0  0  0  0  0  0  0
    7.5094   -8.5264   18.4034 H   0  0  0  0  0  0  0  0  0  0  0  0
    9.1396   -7.2732   17.6727 H   0  0  0  0  0  0  0  0  0  0  0  0
    9.6109   -6.8354   19.9154 H   0  0  0  0  0  0  0  0  0  0  0  0
   11.1226   -6.9453   19.0369 H   0  0  0  0  0  0  0  0  0  0  0  0
   11.5730   -9.1772   19.9048 H   0  0  0  0  0  0  0  0  0  0  0  0
   11.1060   -8.1520   21.2731 H   0  0  0  0  0  0  0  0  0  0  0  0
  1  2  1  0
  2  3  1  0
  3  4  1  0
  4  5  2  0
  5  6  1  0
  6  7  1  0
  7  8  2  0
  7  9  2  0
  7 10  1  0
 10 11  1  0
 11 12  2  0
 11 13  1  0
 13 14  2  0
 14 15  1  0
 15 16  2  0
 16 17  1  0
 16 18  1  0
 18 19  1  0
 19 20  1  0
 20 21  1  0
  6  2  2  0
 17 13  1  0
 21 15  1  0
  1 22  1  0
  1 23  1  0
  1 24  1  0
  3 25  1  0
  5 26  1  0
 10 27  1  0
 14 28  1  0
 18 29  1  0
 18 30  1  0
 19 31  1  0
 20 32  1  0
 20 33  1  0
 21 34  1  0
 21 35  1  0
M  END
>  <Energy>  (1398) 
-59.969113903969777

>  <compound_id>  (1398) 
50711

>  <target_id>  (1398) 
1

>  <reference_id>  (1398) 
96

>  <inspiration_ids>  (1398) 
[96, 146]

>  <energy_score>  (1398) 
-47.09403199431381

>  <distance_score>  (1398) 
13.973900955390594

>  <path>  (1398) 
/opt/xchem-fragalysis-2/maxwin/BulkDock/SCRATCH/511022/C50711-P96/C50711-P96.minimised.mol

>  <scratch_subdir>  (1398) 
/opt/xchem-fragalysis-2/maxwin/BulkDock/SCRATCH/511022/C50711-P96

>  <fragmenstein_runtime>  (1398) 
17.17161798477173

>  <fragmenstein_outcome>  (1398) 
too moved

>  <fragmenstein_mode>  (1398) 
expansion

>  <fragmenstein_error>  (1398) 


$$$$
C50711-P146
     RDKit          3D

 35 37  0  0  0  0  0  0  0  0999 V2000
    2.3436  -19.0151   26.6500 C   0  0  0  0  0  0  0  0  0  0  0  0
    0.9721  -18.9101   27.1592 C   0  0  0  0  0  0  0  0  0  0  0  0
    0.6133  -19.6963   28.2409 N   0  0  0  0  0  0  0  0  0  0  0  0
   -0.6963  -19.7259   28.4981 N   0  0  0  0  0  0  0  0  0  0  0  0
   -1.1815  -18.7636   27.7142 C   0  0  0  0  0  0  0  0  0  0  0  0
   -0.1974  -18.2665   26.7537 C   0  0  0  0  0  0  0  0  0  0  0  0
   -0.7109  -16.8244   25.5887 S   0  0  0  0  0  0  0  0  0  0  0  0
   -0.8519  -16.4382   27.0743 O   0  0  0  0  0  0  0  0  0  0  0  0
   -2.1618  -16.8263   25.4290 O   0  0  0  0  0  0  0  0  0  0  0  0
    0.5285  -14.8680   24.1139 N   0  0  0  0  0  0  0  0  0  0  0  0
    2.5344  -14.7100   23.3377 C   0  0  0  0  0  0  0  0  0  0  0  0
    3.4405  -15.5373   23.3269 O   0  0  0  0  0  0  0  0  0  0  0  0
    3.2257  -13.0913   22.7454 C   0  0  0  0  0  0  0  0  0  0  0  0
    4.3760  -13.0222   21.9007 C   0  0  0  0  0  0  0  0  0  0  0  0
    4.9188  -11.7008   21.7288 C   0  0  0  0  0  0  0  0  0  0  0  0
    4.2957  -10.8255   22.5943 C   0  0  0  0  0  0  0  0  0  0  0  0
    3.1790  -11.6384   23.6568 S   0  0  0  0  0  0  0  0  0  0  0  0
    4.5812   -9.3410   22.6183 C   0  0  0  0  0  0  0  0  0  0  0  0
    5.9136   -9.0309   22.0259 N   0  0  0  0  0  0  0  0  0  0  0  0
    6.0530   -9.6760   20.7025 C   0  0  0  0  0  0  0  0  0  0  0  0
    6.0131  -11.2239   20.7962 C   0  0  0  0  0  0  0  0  0  0  0  0
    2.7166  -18.0788   26.2352 H   0  0  0  0  0  0  0  0  0  0  0  0
    3.0399  -19.2920   27.4503 H   0  0  0  0  0  0  0  0  0  0  0  0
    2.4119  -19.7922   25.8833 H   0  0  0  0  0  0  0  0  0  0  0  0
    1.2155  -20.3041   28.7880 H   0  0  0  0  0  0  0  0  0  0  0  0
   -2.2003  -18.4342   27.8576 H   0  0  0  0  0  0  0  0  0  0  0  0
   -0.0543  -14.0126   23.8955 H   0  0  0  0  0  0  0  0  0  0  0  0
    4.7349  -13.9015   21.3777 H   0  0  0  0  0  0  0  0  0  0  0  0
    3.8028   -8.8085   22.0595 H   0  0  0  0  0  0  0  0  0  0  0  0
    4.5652   -8.9662   23.6475 H   0  0  0  0  0  0  0  0  0  0  0  0
    6.6083   -9.4372   22.6512 H   0  0  0  0  0  0  0  0  0  0  0  0
    7.0013   -9.3666   20.2495 H   0  0  0  0  0  0  0  0  0  0  0  0
    5.2551   -9.3180   20.0397 H   0  0  0  0  0  0  0  0  0  0  0  0
    6.9728  -11.5908   21.1807 H   0  0  0  0  0  0  0  0  0  0  0  0
    5.8648  -11.6500   19.7979 H   0  0  0  0  0  0  0  0  0  0  0  0
  1  2  1  0
  2  3  1  0
  3  4  1  0
  4  5  2  0
  5  6  1  0
  6  7  1  0
  7  8  2  0
  7  9  2  0
  7 10  1  0
 10 11  1  0
 11 12  2  0
 11 13  1  0
 13 14  2  0
 14 15  1  0
 15 16  2  0
 16 17  1  0
 16 18  1  0
 18 19  1  0
 19 20  1  0
 20 21  1  0
  6  2  2  0
 17 13  1  0
 21 15  1  0
  1 22  1  0
  1 23  1  0
  1 24  1  0
  3 25  1  0
  5 26  1  0
 10 27  1  0
 14 28  1  0
 18 29  1  0
 18 30  1  0
 19 31  1  0
 20 32  1  0
 20 33  1  0
 21 34  1  0
 21 35  1  0
M  END
>  <Energy>  (1399) 
739.13991699116309

>  <compound_id>  (1399) 
50711

>  <target_id>  (1399) 
1

>  <reference_id>  (1399) 
146

>  <inspiration_ids>  (1399) 
[96, 146]

>  <energy_score>  (1399) 
752.014998900812

>  <distance_score>  (1399) 
14.008333755784705

>  <path>  (1399) 
/opt/xchem-fragalysis-2/maxwin/BulkDock/SCRATCH/511022/C50711-P146/C50711-P146.minimised.mol

>  <scratch_subdir>  (1399) 
/opt/xchem-fragalysis-2/maxwin/BulkDock/SCRATCH/511022/C50711-P146

>  <fragmenstein_runtime>  (1399) 
21.80926275253296

>  <fragmenstein_outcome>  (1399) 
too moved

>  <fragmenstein_mode>  (1399) 
expansion

>  <fragmenstein_error>  (1399) 


$$$$
C50713-P96
     RDKit          3D

 41 43  0  0  0  0  0  0  0  0999 V2000
    0.1273  -17.8375   22.8863 C   0  0  0  0  0  0  0  0  0  0  0  0
    0.2176  -16.8931   24.7099 C   0  0  0  0  0  0  0  0  0  0  0  0
   -0.9967  -16.6908   25.4052 N   0  0  0  0  0  0  0  0  0  0  0  0
   -0.9017  -15.8680   26.3649 N   0  0  0  0  0  0  0  0  0  0  0  0
    0.3812  -15.4670   26.6248 C   0  0  0  0  0  0  0  0  0  0  0  0
    1.2537  -15.8155   25.7569 C   0  0  0  0  0  0  0  0  0  0  0  0
    2.8967  -14.5715   25.6459 S   0  0  0  0  0  0  0  0  0  0  0  0
    3.5297  -14.4841   26.9086 O   0  0  0  0  0  0  0  0  0  0  0  0
    3.1124  -15.5888   24.5873 O   0  0  0  0  0  0  0  0  0  0  0  0
    3.8169  -12.8515   24.4229 N   0  0  0  0  0  0  0  0  0  0  0  0
    4.3659  -11.1146   24.9317 C   0  0  0  0  0  0  0  0  0  0  0  0
    4.2375  -10.5279   25.9898 O   0  0  0  0  0  0  0  0  0  0  0  0
    5.4160  -10.1392   23.8091 C   0  0  0  0  0  0  0  0  0  0  0  0
    6.7835  -10.2372   24.2938 C   0  0  0  0  0  0  0  0  0  0  0  0
    8.0103   -9.6057   23.9093 C   0  0  0  0  0  0  0  0  0  0  0  0
    8.0051   -8.6618   22.9372 C   0  0  0  0  0  0  0  0  0  0  0  0
    6.7631   -8.5573   22.3478 C   0  0  0  0  0  0  0  0  0  0  0  0
    5.6498   -9.4467   22.6397 C   0  0  0  0  0  0  0  0  0  0  0  0
    6.4616   -7.4285   21.4372 C   0  0  0  0  0  0  0  0  0  0  0  0
    6.7300   -6.0758   22.1279 C   0  0  0  0  0  0  0  0  0  0  0  0
    8.1920   -5.7732   22.4915 C   0  0  0  0  0  0  0  0  0  0  0  0
    9.1768   -6.6581   21.8881 N   0  0  0  0  0  0  0  0  0  0  0  0
    9.2812   -7.9276   22.6020 C   0  0  0  0  0  0  0  0  0  0  0  0
   -0.9822  -18.2195   22.6699 H   0  0  0  0  0  0  0  0  0  0  0  0
    0.3168  -18.9020   22.7887 H   0  0  0  0  0  0  0  0  0  0  0  0
   -0.2082  -17.4666   21.8857 H   0  0  0  0  0  0  0  0  0  0  0  0
   -1.8784  -17.1416   25.1923 H   0  0  0  0  0  0  0  0  0  0  0  0
    0.7465  -14.6593   27.2914 H   0  0  0  0  0  0  0  0  0  0  0  0
    4.0008  -13.0210   23.4309 H   0  0  0  0  0  0  0  0  0  0  0  0
    7.0753  -10.9892   24.9999 H   0  0  0  0  0  0  0  0  0  0  0  0
    8.9239   -9.8715   24.4398 H   0  0  0  0  0  0  0  0  0  0  0  0
    4.9514   -9.3986   21.8371 H   0  0  0  0  0  0  0  0  0  0  0  0
    5.4153   -7.4300   21.1088 H   0  0  0  0  0  0  0  0  0  0  0  0
    7.0516   -7.6952   20.5693 H   0  0  0  0  0  0  0  0  0  0  0  0
    6.1350   -6.0288   23.0510 H   0  0  0  0  0  0  0  0  0  0  0  0
    6.3389   -5.2622   21.5058 H   0  0  0  0  0  0  0  0  0  0  0  0
    8.4194   -4.7476   22.1811 H   0  0  0  0  0  0  0  0  0  0  0  0
    8.3078   -5.7584   23.5834 H   0  0  0  0  0  0  0  0  0  0  0  0
    9.0939   -6.8275   20.8961 H   0  0  0  0  0  0  0  0  0  0  0  0
    9.9134   -8.6003   22.0094 H   0  0  0  0  0  0  0  0  0  0  0  0
    9.8288   -7.7354   23.5340 H   0  0  0  0  0  0  0  0  0  0  0  0
  1  2  1  0
  2  3  1  0
  3  4  1  0
  4  5  2  0
  5  6  1  0
  6  7  1  0
  7  8  2  0
  7  9  2  0
  7 10  1  0
 10 11  1  0
 11 12  2  0
 11 13  1  0
 13 14  2  0
 14 15  1  0
 15 16  2  0
 16 17  1  0
 17 18  2  0
 17 19  1  0
 19 20  1  0
 20 21  1  0
 21 22  1  0
 22 23  1  0
  6  2  2  0
 18 13  1  0
 23 16  1  0
  1 24  1  0
  1 25  1  0
  1 26  1  0
  3 27  1  0
  5 28  1  0
 10 29  1  0
 14 30  1  0
 15 31  1  0
 18 32  1  0
 19 33  1  0
 19 34  1  0
 20 35  1  0
 20 36  1  0
 21 37  1  0
 21 38  1  0
 22 39  1  0
 23 40  1  0
 23 41  1  0
M  END
>  <Energy>  (1400) 
524.71216709239434

>  <compound_id>  (1400) 
50713

>  <target_id>  (1400) 
1

>  <reference_id>  (1400) 
96

>  <inspiration_ids>  (1400) 
[96, 146]

>  <energy_score>  (1400) 
516.3177629823747

>  <distance_score>  (1400) 
12.605083939856856

>  <path>  (1400) 
/opt/xchem-fragalysis-2/maxwin/BulkDock/SCRATCH/511022/C50713-P96/C50713-P96.minimised.mol

>  <scratch_subdir>  (1400) 
/opt/xchem-fragalysis-2/maxwin/BulkDock/SCRATCH/511022/C50713-P96

>  <fragmenstein_runtime>  (1400) 
18.354904174804688

>  <fragmenstein_outcome>  (1400) 
too moved

>  <fragmenstein_mode>  (1400) 
expansion

>  <fragmenstein_error>  (1400) 


$$$$
C50713-P146
     RDKit          3D

 41 43  0  0  0  0  0  0  0  0999 V2000
   -0.0558  -14.0929   23.4121 C   0  0  0  0  0  0  0  0  0  0  0  0
   -0.2639  -12.9152   24.2095 C   0  0  0  0  0  0  0  0  0  0  0  0
   -1.5594  -12.8418   25.4482 N   0  0  0  0  0  0  0  0  0  0  0  0
   -1.3414  -13.4537   26.5257 N   0  0  0  0  0  0  0  0  0  0  0  0
   -0.0199  -13.1676   26.3994 C   0  0  0  0  0  0  0  0  0  0  0  0
    0.9059  -12.6123   24.8397 C   0  0  0  0  0  0  0  0  0  0  0  0
    2.4511  -11.9440   24.1536 S   0  0  0  0  0  0  0  0  0  0  0  0
    3.4219  -12.9827   24.2770 O   0  0  0  0  0  0  0  0  0  0  0  0
    1.9229  -11.8255   22.8258 O   0  0  0  0  0  0  0  0  0  0  0  0
    3.0333  -10.3137   24.3573 N   0  0  0  0  0  0  0  0  0  0  0  0
    4.4119   -9.7864   24.6935 C   0  0  0  0  0  0  0  0  0  0  0  0
    5.4279  -10.3745   24.9831 O   0  0  0  0  0  0  0  0  0  0  0  0
    4.6279   -8.2059   24.6324 C   0  0  0  0  0  0  0  0  0  0  0  0
    5.7926   -7.6814   25.2376 C   0  0  0  0  0  0  0  0  0  0  0  0
    6.3720   -6.4556   24.8319 C   0  0  0  0  0  0  0  0  0  0  0  0
    5.8211   -5.6792   23.7976 C   0  0  0  0  0  0  0  0  0  0  0  0
    4.6069   -6.1044   23.2491 C   0  0  0  0  0  0  0  0  0  0  0  0
    4.0190   -7.3443   23.7033 C   0  0  0  0  0  0  0  0  0  0  0  0
    4.0027   -5.3607   22.0690 C   0  0  0  0  0  0  0  0  0  0  0  0
    3.8116   -3.8539   22.2189 C   0  0  0  0  0  0  0  0  0  0  0  0
    5.0812   -3.0348   22.1066 C   0  0  0  0  0  0  0  0  0  0  0  0
    5.9761   -3.2177   23.2410 N   0  0  0  0  0  0  0  0  0  0  0  0
    6.6199   -4.5298   23.2232 C   0  0  0  0  0  0  0  0  0  0  0  0
   -0.0053  -14.0187   22.3649 H   0  0  0  0  0  0  0  0  0  0  0  0
   -0.8255  -14.8176   23.6483 H   0  0  0  0  0  0  0  0  0  0  0  0
    0.8977  -14.4488   23.6993 H   0  0  0  0  0  0  0  0  0  0  0  0
   -2.0409  -11.9505   25.4790 H   0  0  0  0  0  0  0  0  0  0  0  0
    0.7018  -13.7759   26.9496 H   0  0  0  0  0  0  0  0  0  0  0  0
    2.4399   -9.5444   24.0816 H   0  0  0  0  0  0  0  0  0  0  0  0
    6.3588   -8.3049   25.9286 H   0  0  0  0  0  0  0  0  0  0  0  0
    7.3178   -6.1667   25.2864 H   0  0  0  0  0  0  0  0  0  0  0  0
    3.1140   -7.6947   23.2286 H   0  0  0  0  0  0  0  0  0  0  0  0
    4.5899   -5.5839   21.1702 H   0  0  0  0  0  0  0  0  0  0  0  0
    2.9940   -5.7556   21.9008 H   0  0  0  0  0  0  0  0  0  0  0  0
    3.1340   -3.5207   21.4219 H   0  0  0  0  0  0  0  0  0  0  0  0
    3.3020   -3.6331   23.1659 H   0  0  0  0  0  0  0  0  0  0  0  0
    4.7978   -1.9759   22.0773 H   0  0  0  0  0  0  0  0  0  0  0  0
    5.5873   -3.2424   21.1600 H   0  0  0  0  0  0  0  0  0  0  0  0
    6.7071   -2.5147   23.1696 H   0  0  0  0  0  0  0  0  0  0  0  0
    7.5034   -4.4184   23.8572 H   0  0  0  0  0  0  0  0  0  0  0  0
    6.9608   -4.7927   22.2174 H   0  0  0  0  0  0  0  0  0  0  0  0
  1  2  1  0
  2  3  1  0
  3  4  1  0
  4  5  2  0
  5  6  1  0
  6  7  1  0
  7  8  2  0
  7  9  2  0
  7 10  1  0
 10 11  1  0
 11 12  2  0
 11 13  1  0
 13 14  2  0
 14 15  1  0
 15 16  2  0
 16 17  1  0
 17 18  2  0
 17 19  1  0
 19 20  1  0
 20 21  1  0
 21 22  1  0
 22 23  1  0
  6  2  2  0
 18 13  1  0
 23 16  1  0
  1 24  1  0
  1 25  1  0
  1 26  1  0
  3 27  1  0
  5 28  1  0
 10 29  1  0
 14 30  1  0
 15 31  1  0
 18 32  1  0
 19 33  1  0
 19 34  1  0
 20 35  1  0
 20 36  1  0
 21 37  1  0
 21 38  1  0
 22 39  1  0
 23 40  1  0
 23 41  1  0
M  END
>  <Energy>  (1401) 
214.66904075087376

>  <compound_id>  (1401) 
50713

>  <target_id>  (1401) 
1

>  <reference_id>  (1401) 
146

>  <inspiration_ids>  (1401) 
[96, 146]

>  <energy_score>  (1401) 
206.2746366408643

>  <distance_score>  (1401) 
13.747255158898753

>  <path>  (1401) 
/opt/xchem-fragalysis-2/maxwin/BulkDock/SCRATCH/511022/C50713-P146/C50713-P146.minimised.mol

>  <scratch_subdir>  (1401) 
/opt/xchem-fragalysis-2/maxwin/BulkDock/SCRATCH/511022/C50713-P146

>  <fragmenstein_runtime>  (1401) 
39.398871660232544

>  <fragmenstein_outcome>  (1401) 
too moved

>  <fragmenstein_mode>  (1401) 
expansion

>  <fragmenstein_error>  (1401) 


$$$$
C50714-P96
     RDKit          3D

 38 40  0  0  0  0  0  0  0  0999 V2000
   -5.1918  -11.9231   25.8725 C   0  0  0  0  0  0  0  0  0  0  0  0
   -5.4535  -11.7407   24.4230 C   0  0  0  0  0  0  0  0  0  0  0  0
   -6.2413  -12.6949   23.8247 N   0  0  0  0  0  0  0  0  0  0  0  0
   -6.5357  -12.4378   22.5530 N   0  0  0  0  0  0  0  0  0  0  0  0
   -5.9402  -11.2586   22.3308 C   0  0  0  0  0  0  0  0  0  0  0  0
   -5.1695  -10.7846   23.4273 C   0  0  0  0  0  0  0  0  0  0  0  0
   -4.3950   -9.1666   23.4218 S   0  0  0  0  0  0  0  0  0  0  0  0
   -4.1856   -8.9328   24.8376 O   0  0  0  0  0  0  0  0  0  0  0  0
   -5.3761   -8.3689   22.7156 O   0  0  0  0  0  0  0  0  0  0  0  0
   -2.8828   -8.8121   22.7115 N   0  0  0  0  0  0  0  0  0  0  0  0
   -2.5319   -8.3553   21.3232 C   0  0  0  0  0  0  0  0  0  0  0  0
   -3.2262   -8.2079   20.3546 O   0  0  0  0  0  0  0  0  0  0  0  0
   -1.0413   -7.9259   21.0878 C   0  0  0  0  0  0  0  0  0  0  0  0
   -0.4837   -7.6012   19.8346 C   0  0  0  0  0  0  0  0  0  0  0  0
    0.9034   -7.1499   19.8122 C   0  0  0  0  0  0  0  0  0  0  0  0
    1.4076   -7.1448   21.0999 C   0  0  0  0  0  0  0  0  0  0  0  0
    0.2121   -7.6857   22.2558 S   0  0  0  0  0  0  0  0  0  0  0  0
    2.8135   -6.7461   21.5298 C   0  0  0  0  0  0  0  0  0  0  0  0
    3.4494   -5.6658   20.6337 C   0  0  0  0  0  0  0  0  0  0  0  0
    3.9302   -6.1698   19.2677 C   0  0  0  0  0  0  0  0  0  0  0  0
    3.0439   -7.1057   18.5829 N   0  0  0  0  0  0  0  0  0  0  0  0
    1.6387   -6.7033   18.5557 C   0  0  0  0  0  0  0  0  0  0  0  0
   -4.4362  -12.6989   26.0326 H   0  0  0  0  0  0  0  0  0  0  0  0
   -4.8467  -10.9955   26.3358 H   0  0  0  0  0  0  0  0  0  0  0  0
   -6.1034  -12.2249   26.4002 H   0  0  0  0  0  0  0  0  0  0  0  0
   -6.6548  -13.5149   24.2546 H   0  0  0  0  0  0  0  0  0  0  0  0
   -6.0805  -10.7792   21.3681 H   0  0  0  0  0  0  0  0  0  0  0  0
   -2.0638   -8.7404   23.3033 H   0  0  0  0  0  0  0  0  0  0  0  0
   -1.0852   -7.6623   18.9314 H   0  0  0  0  0  0  0  0  0  0  0  0
    2.7668   -6.3519   22.5528 H   0  0  0  0  0  0  0  0  0  0  0  0
    3.4483   -7.6400   21.5567 H   0  0  0  0  0  0  0  0  0  0  0  0
    2.7384   -4.8412   20.4941 H   0  0  0  0  0  0  0  0  0  0  0  0
    4.3144   -5.2416   21.1587 H   0  0  0  0  0  0  0  0  0  0  0  0
    4.8889   -6.6811   19.4066 H   0  0  0  0  0  0  0  0  0  0  0  0
    4.1246   -5.3054   18.6218 H   0  0  0  0  0  0  0  0  0  0  0  0
    3.3730   -7.2261   17.6250 H   0  0  0  0  0  0  0  0  0  0  0  0
    1.5202   -5.6243   18.4024 H   0  0  0  0  0  0  0  0  0  0  0  0
    1.1637   -7.1976   17.6992 H   0  0  0  0  0  0  0  0  0  0  0  0
  1  2  1  0
  2  3  1  0
  3  4  1  0
  4  5  2  0
  5  6  1  0
  6  7  1  0
  7  8  2  0
  7  9  2  0
  7 10  1  0
 10 11  1  0
 11 12  2  0
 11 13  1  0
 13 14  2  0
 14 15  1  0
 15 16  2  0
 16 17  1  0
 16 18  1  0
 18 19  1  0
 19 20  1  0
 20 21  1  0
 21 22  1  0
  6  2  2  0
 17 13  1  0
 22 15  1  0
  1 23  1  0
  1 24  1  0
  1 25  1  0
  3 26  1  0
  5 27  1  0
 10 28  1  0
 14 29  1  0
 18 30  1  0
 18 31  1  0
 19 32  1  0
 19 33  1  0
 20 34  1  0
 20 35  1  0
 21 36  1  0
 22 37  1  0
 22 38  1  0
M  END
>  <Energy>  (1402) 
-57.26950027236564

>  <compound_id>  (1402) 
50714

>  <target_id>  (1402) 
1

>  <reference_id>  (1402) 
96

>  <inspiration_ids>  (1402) 
[96, 146]

>  <energy_score>  (1402) 
-23.85319812644775

>  <distance_score>  (1402) 
14.466563208245338

>  <path>  (1402) 
/opt/xchem-fragalysis-2/maxwin/BulkDock/SCRATCH/511022/C50714-P96/C50714-P96.minimised.mol

>  <scratch_subdir>  (1402) 
/opt/xchem-fragalysis-2/maxwin/BulkDock/SCRATCH/511022/C50714-P96

>  <fragmenstein_runtime>  (1402) 
17.13430380821228

>  <fragmenstein_outcome>  (1402) 
too moved

>  <fragmenstein_mode>  (1402) 
expansion

>  <fragmenstein_error>  (1402) 


$$$$
C50714-P146
     RDKit          3D

 38 40  0  0  0  0  0  0  0  0999 V2000
   -6.3136  -12.1477   19.8813 C   0  0  0  0  0  0  0  0  0  0  0  0
   -5.6898  -11.2762   20.9102 C   0  0  0  0  0  0  0  0  0  0  0  0
   -6.0914  -11.3911   22.2192 N   0  0  0  0  0  0  0  0  0  0  0  0
   -5.4239  -10.5909   23.0621 N   0  0  0  0  0  0  0  0  0  0  0  0
   -4.6416   -9.8659   22.2478 C   0  0  0  0  0  0  0  0  0  0  0  0
   -4.7200  -10.2565   20.8904 C   0  0  0  0  0  0  0  0  0  0  0  0
   -3.9538   -9.4025   19.5330 S   0  0  0  0  0  0  0  0  0  0  0  0
   -4.1934  -10.2988   18.4181 O   0  0  0  0  0  0  0  0  0  0  0  0
   -4.6580   -8.1359   19.5835 O   0  0  0  0  0  0  0  0  0  0  0  0
   -2.3024   -9.0251   19.4430 N   0  0  0  0  0  0  0  0  0  0  0  0
   -1.5655   -7.7722   19.7890 C   0  0  0  0  0  0  0  0  0  0  0  0
   -1.9555   -6.7541   20.2931 O   0  0  0  0  0  0  0  0  0  0  0  0
   -0.0827   -7.7057   19.3433 C   0  0  0  0  0  0  0  0  0  0  0  0
    0.7537   -6.5753   19.4579 C   0  0  0  0  0  0  0  0  0  0  0  0
    2.0800   -6.6744   18.8617 C   0  0  0  0  0  0  0  0  0  0  0  0
    2.2557   -7.9452   18.3453 C   0  0  0  0  0  0  0  0  0  0  0  0
    0.8231   -8.9155   18.5302 S   0  0  0  0  0  0  0  0  0  0  0  0
    3.4744   -8.5003   17.6288 C   0  0  0  0  0  0  0  0  0  0  0  0
    4.7879   -7.7925   17.9873 C   0  0  0  0  0  0  0  0  0  0  0  0
    4.9329   -6.3870   17.3990 C   0  0  0  0  0  0  0  0  0  0  0  0
    3.7748   -5.5034   17.5098 N   0  0  0  0  0  0  0  0  0  0  0  0
    3.1013   -5.5498   18.8111 C   0  0  0  0  0  0  0  0  0  0  0  0
   -5.5516  -12.5504   19.2111 H   0  0  0  0  0  0  0  0  0  0  0  0
   -6.8571  -12.9830   20.3329 H   0  0  0  0  0  0  0  0  0  0  0  0
   -7.0220  -11.5676   19.2814 H   0  0  0  0  0  0  0  0  0  0  0  0
   -6.8035  -12.0040   22.6018 H   0  0  0  0  0  0  0  0  0  0  0  0
   -4.0523   -9.0640   22.6740 H   0  0  0  0  0  0  0  0  0  0  0  0
   -1.6742   -9.6581   18.9492 H   0  0  0  0  0  0  0  0  0  0  0  0
    0.3921   -5.6621   19.9217 H   0  0  0  0  0  0  0  0  0  0  0  0
    3.3057   -8.4517   16.5460 H   0  0  0  0  0  0  0  0  0  0  0  0
    3.5801   -9.5607   17.8912 H   0  0  0  0  0  0  0  0  0  0  0  0
    4.9000   -7.7539   19.0786 H   0  0  0  0  0  0  0  0  0  0  0  0
    5.6236   -8.3996   17.6168 H   0  0  0  0  0  0  0  0  0  0  0  0
    5.1932   -6.4678   16.3374 H   0  0  0  0  0  0  0  0  0  0  0  0
    5.7904   -5.9096   17.8839 H   0  0  0  0  0  0  0  0  0  0  0  0
    3.0920   -5.7189   16.7838 H   0  0  0  0  0  0  0  0  0  0  0  0
    3.8118   -5.6332   19.6416 H   0  0  0  0  0  0  0  0  0  0  0  0
    2.5731   -4.5983   18.9443 H   0  0  0  0  0  0  0  0  0  0  0  0
  1  2  1  0
  2  3  1  0
  3  4  1  0
  4  5  2  0
  5  6  1  0
  6  7  1  0
  7  8  2  0
  7  9  2  0
  7 10  1  0
 10 11  1  0
 11 12  2  0
 11 13  1  0
 13 14  2  0
 14 15  1  0
 15 16  2  0
 16 17  1  0
 16 18  1  0
 18 19  1  0
 19 20  1  0
 20 21  1  0
 21 22  1  0
  6  2  2  0
 17 13  1  0
 22 15  1  0
  1 23  1  0
  1 24  1  0
  1 25  1  0
  3 26  1  0
  5 27  1  0
 10 28  1  0
 14 29  1  0
 18 30  1  0
 18 31  1  0
 19 32  1  0
 19 33  1  0
 20 34  1  0
 20 35  1  0
 21 36  1  0
 22 37  1  0
 22 38  1  0
M  END
>  <Energy>  (1403) 
-63.749531806621036

>  <compound_id>  (1403) 
50714

>  <target_id>  (1403) 
1

>  <reference_id>  (1403) 
146

>  <inspiration_ids>  (1403) 
[96, 146]

>  <energy_score>  (1403) 
-30.333229660707957

>  <distance_score>  (1403) 
14.299507714180592

>  <path>  (1403) 
/opt/xchem-fragalysis-2/maxwin/BulkDock/SCRATCH/511022/C50714-P146/C50714-P146.minimised.mol

>  <scratch_subdir>  (1403) 
/opt/xchem-fragalysis-2/maxwin/BulkDock/SCRATCH/511022/C50714-P146

>  <fragmenstein_runtime>  (1403) 
30.865245819091797

>  <fragmenstein_outcome>  (1403) 
too moved

>  <fragmenstein_mode>  (1403) 
expansion

>  <fragmenstein_error>  (1403) 


$$$$
C50715-P96
     RDKit          3D

 42 44  0  0  0  0  0  0  0  0999 V2000
    2.3813  -15.6698   26.6945 C   0  0  0  0  0  0  0  0  0  0  0  0
    2.3067  -16.6933   25.6747 N   0  0  0  0  0  0  0  0  0  0  0  0
    1.5927  -17.8067   25.9998 N   0  0  0  0  0  0  0  0  0  0  0  0
    1.8030  -18.6255   24.9747 C   0  0  0  0  0  0  0  0  0  0  0  0
    2.6004  -18.0252   23.9840 C   0  0  0  0  0  0  0  0  0  0  0  0
    2.8165  -16.6972   24.3635 C   0  0  0  0  0  0  0  0  0  0  0  0
    3.4272  -15.4881   23.6908 C   0  0  0  0  0  0  0  0  0  0  0  0
    4.0849  -14.2263   22.7729 C   0  0  0  0  0  0  0  0  0  0  0  0
    4.2382  -12.4357   23.3653 C   0  0  0  0  0  0  0  0  0  0  0  0
    3.1671  -11.9640   23.4403 O   0  0  0  0  0  0  0  0  0  0  0  0
    5.7614  -11.3643   23.6496 N   0  0  0  0  0  0  0  0  0  0  0  0
    5.8987   -9.9126   23.8744 C   0  0  0  0  0  0  0  0  0  0  0  0
    7.0966   -9.0316   23.3488 C   0  0  0  0  0  0  0  0  0  0  0  0
    6.9104   -7.6333   23.4945 C   0  0  0  0  0  0  0  0  0  0  0  0
    7.8035   -6.6668   22.9921 C   0  0  0  0  0  0  0  0  0  0  0  0
    8.9600   -7.0450   22.3169 C   0  0  0  0  0  0  0  0  0  0  0  0
    9.2235   -8.4184   22.1804 C   0  0  0  0  0  0  0  0  0  0  0  0
    8.2782   -9.3994   22.6689 C   0  0  0  0  0  0  0  0  0  0  0  0
   10.5087   -8.8237   21.4753 C   0  0  0  0  0  0  0  0  0  0  0  0
   11.3957   -7.6592   20.9689 C   0  0  0  0  0  0  0  0  0  0  0  0
   10.6466   -6.4501   20.6122 N   0  0  0  0  0  0  0  0  0  0  0  0
    9.9250   -5.9988   21.8045 C   0  0  0  0  0  0  0  0  0  0  0  0
    1.3743  -15.4859   27.0773 H   0  0  0  0  0  0  0  0  0  0  0  0
    3.0240  -16.0440   27.4959 H   0  0  0  0  0  0  0  0  0  0  0  0
    2.7922  -14.7461   26.2980 H   0  0  0  0  0  0  0  0  0  0  0  0
    1.3775  -19.6200   24.9858 H   0  0  0  0  0  0  0  0  0  0  0  0
    2.9058  -18.4637   23.0427 H   0  0  0  0  0  0  0  0  0  0  0  0
    2.9805  -15.8944   22.7661 H   0  0  0  0  0  0  0  0  0  0  0  0
    3.5911  -14.0843   21.8266 H   0  0  0  0  0  0  0  0  0  0  0  0
    6.6687  -12.0064   23.6371 H   0  0  0  0  0  0  0  0  0  0  0  0
    5.1507   -9.5964   23.1854 H   0  0  0  0  0  0  0  0  0  0  0  0
    5.6276   -9.6495   24.8960 H   0  0  0  0  0  0  0  0  0  0  0  0
    6.0179   -7.2674   24.0047 H   0  0  0  0  0  0  0  0  0  0  0  0
    7.5733   -5.6142   23.1484 H   0  0  0  0  0  0  0  0  0  0  0  0
    8.4805  -10.4500   22.4830 H   0  0  0  0  0  0  0  0  0  0  0  0
   10.2460   -9.4416   20.6202 H   0  0  0  0  0  0  0  0  0  0  0  0
   11.0998   -9.4478   22.1562 H   0  0  0  0  0  0  0  0  0  0  0  0
   11.9751   -7.9982   20.1024 H   0  0  0  0  0  0  0  0  0  0  0  0
   12.1348   -7.4067   21.7406 H   0  0  0  0  0  0  0  0  0  0  0  0
    9.9720   -6.6692   19.8865 H   0  0  0  0  0  0  0  0  0  0  0  0
   10.6274   -5.7309   22.6035 H   0  0  0  0  0  0  0  0  0  0  0  0
    9.3793   -5.0869   21.5484 H   0  0  0  0  0  0  0  0  0  0  0  0
  1  2  1  0
  2  3  1  0
  3  4  2  0
  4  5  1  0
  5  6  2  0
  6  7  1  0
  7  8  2  3
  8  9  1  0
  9 10  2  0
  9 11  1  0
 11 12  1  0
 12 13  1  0
 13 14  2  0
 14 15  1  0
 15 16  2  0
 16 17  1  0
 17 18  2  0
 17 19  1  0
 19 20  1  0
 20 21  1  0
 21 22  1  0
  6  2  1  0
 18 13  1  0
 22 16  1  0
  1 23  1  0
  1 24  1  0
  1 25  1  0
  4 26  1  0
  5 27  1  0
  7 28  1  0
  8 29  1  0
 11 30  1  0
 12 31  1  0
 12 32  1  0
 14 33  1  0
 15 34  1  0
 18 35  1  0
 19 36  1  0
 19 37  1  0
 20 38  1  0
 20 39  1  0
 21 40  1  0
 22 41  1  0
 22 42  1  0
M  END
>  <Energy>  (1404) 
333.22609693802406

>  <compound_id>  (1404) 
50715

>  <target_id>  (1404) 
1

>  <reference_id>  (1404) 
96

>  <inspiration_ids>  (1404) 
[96, 146]

>  <energy_score>  (1404) 
276.6929958435667

>  <distance_score>  (1404) 
12.323277928901206

>  <path>  (1404) 
/opt/xchem-fragalysis-2/maxwin/BulkDock/SCRATCH/511022/C50715-P96/C50715-P96.minimised.mol

>  <scratch_subdir>  (1404) 
/opt/xchem-fragalysis-2/maxwin/BulkDock/SCRATCH/511022/C50715-P96

>  <fragmenstein_runtime>  (1404) 
14.5890793800354

>  <fragmenstein_outcome>  (1404) 
too moved

>  <fragmenstein_mode>  (1404) 
expansion

>  <fragmenstein_error>  (1404) 


$$$$
C50715-P146
     RDKit          3D

 42 44  0  0  0  0  0  0  0  0999 V2000
   -1.8120  -19.4755   22.0048 C   0  0  0  0  0  0  0  0  0  0  0  0
   -0.5364  -20.0415   22.3896 N   0  0  0  0  0  0  0  0  0  0  0  0
   -0.6608  -21.0255   23.3252 N   0  0  0  0  0  0  0  0  0  0  0  0
    0.5158  -21.6301   23.3341 C   0  0  0  0  0  0  0  0  0  0  0  0
    1.4316  -21.0082   22.4738 C   0  0  0  0  0  0  0  0  0  0  0  0
    0.7940  -19.9032   21.8993 C   0  0  0  0  0  0  0  0  0  0  0  0
    1.6062  -18.7456   20.9560 C   0  0  0  0  0  0  0  0  0  0  0  0
    1.4978  -17.1453   20.1705 C   0  0  0  0  0  0  0  0  0  0  0  0
    2.6887  -16.1597   19.1732 C   0  0  0  0  0  0  0  0  0  0  0  0
    3.0233  -16.5897   18.0992 O   0  0  0  0  0  0  0  0  0  0  0  0
    3.1640  -14.9595   19.9340 N   0  0  0  0  0  0  0  0  0  0  0  0
    4.5157  -13.7765   19.5913 C   0  0  0  0  0  0  0  0  0  0  0  0
    5.5912  -12.6505   20.6268 C   0  0  0  0  0  0  0  0  0  0  0  0
    4.6193  -11.8213   21.8783 C   0  0  0  0  0  0  0  0  0  0  0  0
    5.0347  -11.0410   23.2697 C   0  0  0  0  0  0  0  0  0  0  0  0
    6.4354  -11.0789   23.7894 C   0  0  0  0  0  0  0  0  0  0  0  0
    7.4686  -11.8034   22.9180 C   0  0  0  0  0  0  0  0  0  0  0  0
    7.1995  -12.6995   21.2163 C   0  0  0  0  0  0  0  0  0  0  0  0
    8.7718  -12.0115   24.0929 C   0  0  0  0  0  0  0  0  0  0  0  0
    9.2112  -10.7312   24.8596 C   0  0  0  0  0  0  0  0  0  0  0  0
    8.1420   -9.7663   25.0538 N   0  0  0  0  0  0  0  0  0  0  0  0
    6.8197  -10.4245   25.1033 C   0  0  0  0  0  0  0  0  0  0  0  0
   -1.7591  -18.3989   21.9322 H   0  0  0  0  0  0  0  0  0  0  0  0
   -2.1195  -19.9367   21.0640 H   0  0  0  0  0  0  0  0  0  0  0  0
   -2.5593  -19.7143   22.7695 H   0  0  0  0  0  0  0  0  0  0  0  0
    0.6665  -22.4885   23.9751 H   0  0  0  0  0  0  0  0  0  0  0  0
    2.4683  -21.2780   22.3300 H   0  0  0  0  0  0  0  0  0  0  0  0
    2.0484  -19.5366   20.2573 H   0  0  0  0  0  0  0  0  0  0  0  0
    0.8239  -16.3869   20.6413 H   0  0  0  0  0  0  0  0  0  0  0  0
    2.7213  -14.9457   20.8495 H   0  0  0  0  0  0  0  0  0  0  0  0
    3.9362  -13.3260   20.3592 H   0  0  0  0  0  0  0  0  0  0  0  0
    4.2572  -13.3121   18.6531 H   0  0  0  0  0  0  0  0  0  0  0  0
    3.7358  -12.4505   22.1644 H   0  0  0  0  0  0  0  0  0  0  0  0
    4.2283  -10.6982   23.9181 H   0  0  0  0  0  0  0  0  0  0  0  0
    7.9885  -13.3857   20.9515 H   0  0  0  0  0  0  0  0  0  0  0  0
    9.6410  -12.5338   23.7403 H   0  0  0  0  0  0  0  0  0  0  0  0
    8.4037  -12.6540   24.8834 H   0  0  0  0  0  0  0  0  0  0  0  0
    9.6035  -11.0418   25.8366 H   0  0  0  0  0  0  0  0  0  0  0  0
   10.0502  -10.2408   24.3525 H   0  0  0  0  0  0  0  0  0  0  0  0
    8.2795   -9.2382   25.9112 H   0  0  0  0  0  0  0  0  0  0  0  0
    6.7904  -11.1719   25.9055 H   0  0  0  0  0  0  0  0  0  0  0  0
    6.0743   -9.6648   25.3672 H   0  0  0  0  0  0  0  0  0  0  0  0
  1  2  1  0
  2  3  1  0
  3  4  2  0
  4  5  1  0
  5  6  2  0
  6  7  1  0
  7  8  2  3
  8  9  1  0
  9 10  2  0
  9 11  1  0
 11 12  1  0
 12 13  1  0
 13 14  2  0
 14 15  1  0
 15 16  2  0
 16 17  1  0
 17 18  2  0
 17 19  1  0
 19 20  1  0
 20 21  1  0
 21 22  1  0
  6  2  1  0
 18 13  1  0
 22 16  1  0
  1 23  1  0
  1 24  1  0
  1 25  1  0
  4 26  1  0
  5 27  1  0
  7 28  1  0
  8 29  1  0
 11 30  1  0
 12 31  1  0
 12 32  1  0
 14 33  1  0
 15 34  1  0
 18 35  1  0
 19 36  1  0
 19 37  1  0
 20 38  1  0
 20 39  1  0
 21 40  1  0
 22 41  1  0
 22 42  1  0
M  END
>  <Energy>  (1405) 
578.37221827964254

>  <compound_id>  (1405) 
50715

>  <target_id>  (1405) 
1

>  <reference_id>  (1405) 
146

>  <inspiration_ids>  (1405) 
[96, 146]

>  <energy_score>  (1405) 
521.8391171851794

>  <distance_score>  (1405) 
13.74808115577947

>  <path>  (1405) 
/opt/xchem-fragalysis-2/maxwin/BulkDock/SCRATCH/511022/C50715-P146/C50715-P146.minimised.mol

>  <scratch_subdir>  (1405) 
/opt/xchem-fragalysis-2/maxwin/BulkDock/SCRATCH/511022/C50715-P146

>  <fragmenstein_runtime>  (1405) 
21.965156316757202

>  <fragmenstein_outcome>  (1405) 
too moved

>  <fragmenstein_mode>  (1405) 
expansion

>  <fragmenstein_error>  (1405) 


$$$$
C50716-P96
     RDKit          3D

 42 44  0  0  0  0  0  0  0  0999 V2000
   -0.4365  -19.1117   18.8264 C   0  0  0  0  0  0  0  0  0  0  0  0
    0.1530  -18.6569   20.1593 C   0  0  0  0  0  0  0  0  0  0  0  0
    1.4796  -19.2171   20.4579 N   0  0  0  0  0  0  0  0  0  0  0  0
    1.3320  -20.5470   20.7959 N   0  0  0  0  0  0  0  0  0  0  0  0
    2.0684  -21.1765   19.8950 C   0  0  0  0  0  0  0  0  0  0  0  0
    2.8801  -20.2828   19.1741 C   0  0  0  0  0  0  0  0  0  0  0  0
    2.7190  -19.0046   19.7552 C   0  0  0  0  0  0  0  0  0  0  0  0
    4.0287  -17.9190   20.0730 C   0  0  0  0  0  0  0  0  0  0  0  0
    5.0160  -16.7291   19.4098 C   0  0  0  0  0  0  0  0  0  0  0  0
    6.5233  -16.1311   18.5854 C   0  0  0  0  0  0  0  0  0  0  0  0
    7.4707  -16.8908   18.4605 O   0  0  0  0  0  0  0  0  0  0  0  0
    6.3963  -14.5243   18.2373 N   0  0  0  0  0  0  0  0  0  0  0  0
    7.8582  -13.1397   17.6043 C   0  0  0  0  0  0  0  0  0  0  0  0
    9.3143  -12.7977   16.2417 C   0  0  0  0  0  0  0  0  0  0  0  0
   10.2435  -13.9211   15.9381 C   0  0  0  0  0  0  0  0  0  0  0  0
   11.3823  -13.8196   15.0943 C   0  0  0  0  0  0  0  0  0  0  0  0
   11.6412  -12.6397   14.4275 C   0  0  0  0  0  0  0  0  0  0  0  0
   10.7678  -11.5833   14.5447 C   0  0  0  0  0  0  0  0  0  0  0  0
    9.6416  -11.6440   15.3714 C   0  0  0  0  0  0  0  0  0  0  0  0
   11.2988  -10.4279   13.7583 C   0  0  0  0  0  0  0  0  0  0  0  0
   12.3117  -11.0075   12.8664 N   0  0  0  0  0  0  0  0  0  0  0  0
   12.7754  -12.2380   13.5340 C   0  0  0  0  0  0  0  0  0  0  0  0
   -1.4109  -18.6384   18.6687 H   0  0  0  0  0  0  0  0  0  0  0  0
   -0.5862  -20.1957   18.8010 H   0  0  0  0  0  0  0  0  0  0  0  0
    0.2119  -18.8411   17.9872 H   0  0  0  0  0  0  0  0  0  0  0  0
    0.1481  -17.5775   20.1954 H   0  0  0  0  0  0  0  0  0  0  0  0
   -0.5075  -18.9760   20.9771 H   0  0  0  0  0  0  0  0  0  0  0  0
    2.0358  -22.2558   19.8403 H   0  0  0  0  0  0  0  0  0  0  0  0
    3.6851  -20.5681   18.5135 H   0  0  0  0  0  0  0  0  0  0  0  0
    4.6833  -18.7892   19.7347 H   0  0  0  0  0  0  0  0  0  0  0  0
    5.4002  -16.2655   20.2916 H   0  0  0  0  0  0  0  0  0  0  0  0
    5.4364  -14.2251   18.3768 H   0  0  0  0  0  0  0  0  0  0  0  0
    7.7668  -12.1851   18.0940 H   0  0  0  0  0  0  0  0  0  0  0  0
    8.7115  -13.7373   17.9390 H   0  0  0  0  0  0  0  0  0  0  0  0
   10.1084  -14.8729   16.4622 H   0  0  0  0  0  0  0  0  0  0  0  0
   12.0469  -14.6729   14.9904 H   0  0  0  0  0  0  0  0  0  0  0  0
    9.1302  -10.6771   15.3508 H   0  0  0  0  0  0  0  0  0  0  0  0
   11.8006   -9.7664   14.4655 H   0  0  0  0  0  0  0  0  0  0  0  0
   10.5215   -9.9065   13.1947 H   0  0  0  0  0  0  0  0  0  0  0  0
   13.0657  -10.3317   12.7456 H   0  0  0  0  0  0  0  0  0  0  0  0
   13.6693  -12.0379   14.1348 H   0  0  0  0  0  0  0  0  0  0  0  0
   12.9925  -13.0092   12.7897 H   0  0  0  0  0  0  0  0  0  0  0  0
  1  2  1  0
  2  3  1  0
  3  4  1  0
  4  5  2  0
  5  6  1  0
  6  7  2  0
  7  8  1  0
  8  9  2  3
  9 10  1  0
 10 11  2  0
 10 12  1  0
 12 13  1  0
 13 14  1  0
 14 15  2  0
 15 16  1  0
 16 17  2  0
 17 18  1  0
 18 19  2  0
 18 20  1  0
 20 21  1  0
 21 22  1  0
  7  3  1  0
 19 14  1  0
 22 17  1  0
  1 23  1  0
  1 24  1  0
  1 25  1  0
  2 26  1  0
  2 27  1  0
  5 28  1  0
  6 29  1  0
  8 30  1  0
  9 31  1  0
 12 32  1  0
 13 33  1  0
 13 34  1  0
 15 35  1  0
 16 36  1  0
 19 37  1  0
 20 38  1  0
 20 39  1  0
 21 40  1  0
 22 41  1  0
 22 42  1  0
M  END
>  <Energy>  (1406) 
518.66295865604479

>  <compound_id>  (1406) 
50716

>  <target_id>  (1406) 
1

>  <reference_id>  (1406) 
96

>  <inspiration_ids>  (1406) 
[96, 146]

>  <energy_score>  (1406) 
484.4350446872229

>  <distance_score>  (1406) 
13.021421405131752

>  <path>  (1406) 
/opt/xchem-fragalysis-2/maxwin/BulkDock/SCRATCH/511022/C50716-P96/C50716-P96.minimised.mol

>  <scratch_subdir>  (1406) 
/opt/xchem-fragalysis-2/maxwin/BulkDock/SCRATCH/511022/C50716-P96

>  <fragmenstein_runtime>  (1406) 
18.20478916168213

>  <fragmenstein_outcome>  (1406) 
too moved

>  <fragmenstein_mode>  (1406) 
expansion

>  <fragmenstein_error>  (1406) 


$$$$
C50716-P146
     RDKit          3D

 42 44  0  0  0  0  0  0  0  0999 V2000
   -4.0916  -10.3982   24.6388 C   0  0  0  0  0  0  0  0  0  0  0  0
   -2.7171  -10.6209   25.2678 C   0  0  0  0  0  0  0  0  0  0  0  0
   -2.2068  -12.0110   25.2098 N   0  0  0  0  0  0  0  0  0  0  0  0
   -3.2657  -12.8934   25.6537 N   0  0  0  0  0  0  0  0  0  0  0  0
   -2.5648  -13.7052   26.3787 C   0  0  0  0  0  0  0  0  0  0  0  0
   -1.2568  -13.2938   26.0876 C   0  0  0  0  0  0  0  0  0  0  0  0
   -0.6215  -12.8348   24.5592 C   0  0  0  0  0  0  0  0  0  0  0  0
    1.0521  -12.2565   23.7368 C   0  0  0  0  0  0  0  0  0  0  0  0
    2.7780  -12.2179   23.2923 C   0  0  0  0  0  0  0  0  0  0  0  0
    4.5630  -11.4732   22.4808 C   0  0  0  0  0  0  0  0  0  0  0  0
    5.0591  -10.7069   23.2659 O   0  0  0  0  0  0  0  0  0  0  0  0
    5.5258  -11.7329   20.7628 N   0  0  0  0  0  0  0  0  0  0  0  0
    7.2125  -10.8242   19.9269 C   0  0  0  0  0  0  0  0  0  0  0  0
    8.7824   -9.5663   19.2047 C   0  0  0  0  0  0  0  0  0  0  0  0
   10.2319   -9.0023   20.0997 C   0  0  0  0  0  0  0  0  0  0  0  0
   11.2480   -8.4498   21.4480 C   0  0  0  0  0  0  0  0  0  0  0  0
   11.2861   -7.1709   21.8707 C   0  0  0  0  0  0  0  0  0  0  0  0
   10.3768   -6.7300   21.0267 C   0  0  0  0  0  0  0  0  0  0  0  0
    9.3245   -7.9692   19.9419 C   0  0  0  0  0  0  0  0  0  0  0  0
   10.4364   -5.2337   21.4892 C   0  0  0  0  0  0  0  0  0  0  0  0
   10.8060   -5.2309   22.9290 N   0  0  0  0  0  0  0  0  0  0  0  0
   11.7366   -6.3521   22.9875 C   0  0  0  0  0  0  0  0  0  0  0  0
   -4.1207  -10.7229   23.5951 H   0  0  0  0  0  0  0  0  0  0  0  0
   -4.8774  -10.9345   25.1801 H   0  0  0  0  0  0  0  0  0  0  0  0
   -4.3441   -9.3332   24.6691 H   0  0  0  0  0  0  0  0  0  0  0  0
   -2.7616  -10.3745   26.3363 H   0  0  0  0  0  0  0  0  0  0  0  0
   -2.0322   -9.9466   24.8191 H   0  0  0  0  0  0  0  0  0  0  0  0
   -2.9965  -14.3384   27.1395 H   0  0  0  0  0  0  0  0  0  0  0  0
   -0.4777  -13.5296   26.7445 H   0  0  0  0  0  0  0  0  0  0  0  0
    0.6156  -11.6067   23.0014 H   0  0  0  0  0  0  0  0  0  0  0  0
    3.2905  -12.9040   23.9765 H   0  0  0  0  0  0  0  0  0  0  0  0
    5.0496  -12.4654   20.2288 H   0  0  0  0  0  0  0  0  0  0  0  0
    6.6981  -10.8868   18.9674 H   0  0  0  0  0  0  0  0  0  0  0  0
    7.7814  -11.7316   19.8234 H   0  0  0  0  0  0  0  0  0  0  0  0
   11.0266   -9.6367   19.7482 H   0  0  0  0  0  0  0  0  0  0  0  0
   11.5441   -9.1563   22.2557 H   0  0  0  0  0  0  0  0  0  0  0  0
    7.9833   -7.6586   19.8260 H   0  0  0  0  0  0  0  0  0  0  0  0
   11.3403   -4.7991   21.0502 H   0  0  0  0  0  0  0  0  0  0  0  0
    9.5709   -4.5808   21.4020 H   0  0  0  0  0  0  0  0  0  0  0  0
   11.2908   -4.3606   23.1473 H   0  0  0  0  0  0  0  0  0  0  0  0
   12.7688   -6.0128   22.8528 H   0  0  0  0  0  0  0  0  0  0  0  0
   11.6422   -6.8696   23.9460 H   0  0  0  0  0  0  0  0  0  0  0  0
  1  2  1  0
  2  3  1  0
  3  4  1  0
  4  5  2  0
  5  6  1  0
  6  7  2  0
  7  8  1  0
  8  9  2  3
  9 10  1  0
 10 11  2  0
 10 12  1  0
 12 13  1  0
 13 14  1  0
 14 15  2  0
 15 16  1  0
 16 17  2  0
 17 18  1  0
 18 19  2  0
 18 20  1  0
 20 21  1  0
 21 22  1  0
  7  3  1  0
 19 14  1  0
 22 17  1  0
  1 23  1  0
  1 24  1  0
  1 25  1  0
  2 26  1  0
  2 27  1  0
  5 28  1  0
  6 29  1  0
  8 30  1  0
  9 31  1  0
 12 32  1  0
 13 33  1  0
 13 34  1  0
 15 35  1  0
 16 36  1  0
 19 37  1  0
 20 38  1  0
 20 39  1  0
 21 40  1  0
 22 41  1  0
 22 42  1  0
M  END
>  <Energy>  (1407) 
1543.9009235592771

>  <compound_id>  (1407) 
50716

>  <target_id>  (1407) 
1

>  <reference_id>  (1407) 
146

>  <inspiration_ids>  (1407) 
[96, 146]

>  <energy_score>  (1407) 
1509.673009590458

>  <distance_score>  (1407) 
11.377946321863982

>  <path>  (1407) 
/opt/xchem-fragalysis-2/maxwin/BulkDock/SCRATCH/511022/C50716-P146/C50716-P146.minimised.mol

>  <scratch_subdir>  (1407) 
/opt/xchem-fragalysis-2/maxwin/BulkDock/SCRATCH/511022/C50716-P146

>  <fragmenstein_runtime>  (1407) 
34.85535788536072

>  <fragmenstein_outcome>  (1407) 
too moved

>  <fragmenstein_mode>  (1407) 
expansion

>  <fragmenstein_error>  (1407) 


$$$$
C50718-P96
     RDKit          3D

 48 50  0  0  0  0  0  0  0  0999 V2000
    9.3396  -12.5726   24.2329 C   0  0  0  0  0  0  0  0  0  0  0  0
    9.8827  -11.1226   24.3876 C   0  0  0  0  0  0  0  0  0  0  0  0
   10.2535  -10.8539   25.8501 C   0  0  0  0  0  0  0  0  0  0  0  0
   11.1747  -10.7355   23.4468 C   0  0  0  0  0  0  0  0  0  0  0  0
   11.4964   -9.2771   23.0431 N   0  0  0  0  0  0  0  0  0  0  0  0
   12.9304   -9.1550   22.5576 C   0  0  0  0  0  0  0  0  0  0  0  0
   13.3374   -7.9985   21.6331 C   0  0  0  0  0  0  0  0  0  0  0  0
   13.5131   -8.0853   20.2204 C   0  0  0  0  0  0  0  0  0  0  0  0
   13.9884   -6.9698   19.6621 N   0  0  0  0  0  0  0  0  0  0  0  0
   14.1880   -6.1530   20.7109 N   0  0  0  0  0  0  0  0  0  0  0  0
   14.8097   -4.8624   20.4814 C   0  0  0  0  0  0  0  0  0  0  0  0
   13.7855   -6.7105   21.9034 C   0  0  0  0  0  0  0  0  0  0  0  0
   10.5897   -8.7385   22.0236 C   0  0  0  0  0  0  0  0  0  0  0  0
    9.1948   -9.2603   22.0166 C   0  0  0  0  0  0  0  0  0  0  0  0
    8.7391  -10.4582   21.4824 C   0  0  0  0  0  0  0  0  0  0  0  0
    7.5095  -10.1585   20.7075 C   0  0  0  0  0  0  0  0  0  0  0  0
    6.8546   -9.3452   21.5742 C   0  0  0  0  0  0  0  0  0  0  0  0
    7.8359   -8.4633   22.6676 S   0  0  0  0  0  0  0  0  0  0  0  0
    5.4964   -9.0529   21.3232 C   0  0  0  0  0  0  0  0  0  0  0  0
    4.9274   -9.3161   19.6252 C   0  0  0  0  0  0  0  0  0  0  0  0
    5.3479  -10.5707   18.7856 N   0  0  0  0  0  0  0  0  0  0  0  0
    6.8185  -10.8419   18.9408 C   0  0  0  0  0  0  0  0  0  0  0  0
    8.4910  -12.7425   24.8979 H   0  0  0  0  0  0  0  0  0  0  0  0
   10.1212  -13.2977   24.4818 H   0  0  0  0  0  0  0  0  0  0  0  0
    9.0195  -12.7607   23.2052 H   0  0  0  0  0  0  0  0  0  0  0  0
    9.0503  -10.4596   24.1747 H   0  0  0  0  0  0  0  0  0  0  0  0
   11.0618  -11.5143   26.1812 H   0  0  0  0  0  0  0  0  0  0  0  0
    9.3931  -11.0193   26.5065 H   0  0  0  0  0  0  0  0  0  0  0  0
   10.5812   -9.8177   25.9836 H   0  0  0  0  0  0  0  0  0  0  0  0
   11.1527  -11.3500   22.5395 H   0  0  0  0  0  0  0  0  0  0  0  0
   12.0507  -11.0922   24.0067 H   0  0  0  0  0  0  0  0  0  0  0  0
   13.1900  -10.0798   22.0232 H   0  0  0  0  0  0  0  0  0  0  0  0
   13.5709   -9.1180   23.4474 H   0  0  0  0  0  0  0  0  0  0  0  0
   13.3211   -8.9391   19.5826 H   0  0  0  0  0  0  0  0  0  0  0  0
   15.7996   -5.0318   20.0510 H   0  0  0  0  0  0  0  0  0  0  0  0
   14.8967   -4.3361   21.4348 H   0  0  0  0  0  0  0  0  0  0  0  0
   14.1763   -4.2965   19.7941 H   0  0  0  0  0  0  0  0  0  0  0  0
   13.8951   -6.1760   22.8368 H   0  0  0  0  0  0  0  0  0  0  0  0
   10.5707   -7.6446   22.1058 H   0  0  0  0  0  0  0  0  0  0  0  0
   10.9676   -8.9720   21.0189 H   0  0  0  0  0  0  0  0  0  0  0  0
    9.4273  -11.2564   21.2273 H   0  0  0  0  0  0  0  0  0  0  0  0
    5.0253   -9.6925   22.0547 H   0  0  0  0  0  0  0  0  0  0  0  0
    5.3665   -8.0539   21.7134 H   0  0  0  0  0  0  0  0  0  0  0  0
    3.9794   -8.9791   20.1289 H   0  0  0  0  0  0  0  0  0  0  0  0
    3.9613   -9.6905   19.2155 H   0  0  0  0  0  0  0  0  0  0  0  0
    5.0377  -10.5094   17.8159 H   0  0  0  0  0  0  0  0  0  0  0  0
    7.0803  -11.8646   18.7917 H   0  0  0  0  0  0  0  0  0  0  0  0
    7.2315  -10.4716   18.0038 H   0  0  0  0  0  0  0  0  0  0  0  0
  1  2  1  0
  2  3  1  0
  2  4  1  0
  4  5  1  0
  5  6  1  0
  6  7  1  0
  7  8  1  0
  8  9  2  0
  9 10  1  0
 10 11  1  0
 10 12  1  0
  5 13  1  0
 13 14  1  0
 14 15  2  0
 15 16  1  0
 16 17  2  0
 17 18  1  0
 17 19  1  0
 19 20  1  0
 20 21  1  0
 21 22  1  0
 12  7  2  0
 18 14  1  0
 22 16  1  0
  1 23  1  0
  1 24  1  0
  1 25  1  0
  2 26  1  0
  3 27  1  0
  3 28  1  0
  3 29  1  0
  4 30  1  0
  4 31  1  0
  6 32  1  0
  6 33  1  0
  8 34  1  0
 11 35  1  0
 11 36  1  0
 11 37  1  0
 12 38  1  0
 13 39  1  0
 13 40  1  0
 15 41  1  0
 19 42  1  0
 19 43  1  0
 20 44  1  0
 20 45  1  0
 21 46  1  0
 22 47  1  0
 22 48  1  0
M  END
>  <Energy>  (1408) 
269.82017319480713

>  <compound_id>  (1408) 
50718

>  <target_id>  (1408) 
1

>  <reference_id>  (1408) 
96

>  <inspiration_ids>  (1408) 
[96, 146]

>  <energy_score>  (1408) 
155.50869010554845

>  <distance_score>  (1408) 
14.136835016484648

>  <path>  (1408) 
/opt/xchem-fragalysis-2/maxwin/BulkDock/SCRATCH/511022/C50718-P96/C50718-P96.minimised.mol

>  <scratch_subdir>  (1408) 
/opt/xchem-fragalysis-2/maxwin/BulkDock/SCRATCH/511022/C50718-P96

>  <fragmenstein_runtime>  (1408) 
15.22519850730896

>  <fragmenstein_outcome>  (1408) 
too moved

>  <fragmenstein_mode>  (1408) 
expansion

>  <fragmenstein_error>  (1408) 


$$$$
C50718-P146
     RDKit          3D

 48 50  0  0  0  0  0  0  0  0999 V2000
   11.0983   -6.7530   23.7506 C   0  0  0  0  0  0  0  0  0  0  0  0
   11.2830   -5.7625   22.5551 C   0  0  0  0  0  0  0  0  0  0  0  0
   10.2488   -4.6597   22.7190 C   0  0  0  0  0  0  0  0  0  0  0  0
   12.7748   -5.0725   22.4769 C   0  0  0  0  0  0  0  0  0  0  0  0
   13.3340   -4.1534   21.3252 N   0  0  0  0  0  0  0  0  0  0  0  0
   14.5706   -3.4999   21.8790 C   0  0  0  0  0  0  0  0  0  0  0  0
   15.4957   -2.7591   20.9502 C   0  0  0  0  0  0  0  0  0  0  0  0
   16.8740   -3.0498   20.7372 C   0  0  0  0  0  0  0  0  0  0  0  0
   17.4711   -2.2167   19.8795 N   0  0  0  0  0  0  0  0  0  0  0  0
   16.4744   -1.3955   19.5063 N   0  0  0  0  0  0  0  0  0  0  0  0
   16.7147   -0.3896   18.4972 C   0  0  0  0  0  0  0  0  0  0  0  0
   15.3101   -1.6180   20.1915 C   0  0  0  0  0  0  0  0  0  0  0  0
   13.6428   -4.9864   20.1395 C   0  0  0  0  0  0  0  0  0  0  0  0
   14.0529   -4.3734   18.7985 C   0  0  0  0  0  0  0  0  0  0  0  0
   13.3141   -3.6543   17.8742 C   0  0  0  0  0  0  0  0  0  0  0  0
   14.0587   -3.1691   16.7620 C   0  0  0  0  0  0  0  0  0  0  0  0
   15.3556   -3.6199   16.8294 C   0  0  0  0  0  0  0  0  0  0  0  0
   15.5960   -4.7364   18.0910 S   0  0  0  0  0  0  0  0  0  0  0  0
   16.4388   -3.1541   15.9088 C   0  0  0  0  0  0  0  0  0  0  0  0
   15.8730   -2.1825   14.8371 C   0  0  0  0  0  0  0  0  0  0  0  0
   14.7011   -1.3960   15.2658 N   0  0  0  0  0  0  0  0  0  0  0  0
   13.5870   -2.2666   15.6661 C   0  0  0  0  0  0  0  0  0  0  0  0
   11.5433   -7.7241   23.5259 H   0  0  0  0  0  0  0  0  0  0  0  0
   11.6076   -6.3558   24.6361 H   0  0  0  0  0  0  0  0  0  0  0  0
   10.0524   -6.8936   24.0270 H   0  0  0  0  0  0  0  0  0  0  0  0
   11.1074   -6.2982   21.6214 H   0  0  0  0  0  0  0  0  0  0  0  0
   10.1111   -4.1711   21.7622 H   0  0  0  0  0  0  0  0  0  0  0  0
   10.5574   -3.9207   23.4648 H   0  0  0  0  0  0  0  0  0  0  0  0
    9.2705   -5.0393   23.0275 H   0  0  0  0  0  0  0  0  0  0  0  0
   12.8312   -4.4580   23.3868 H   0  0  0  0  0  0  0  0  0  0  0  0
   13.5039   -5.8790   22.6257 H   0  0  0  0  0  0  0  0  0  0  0  0
   14.2495   -2.7844   22.6473 H   0  0  0  0  0  0  0  0  0  0  0  0
   15.1723   -4.2611   22.3957 H   0  0  0  0  0  0  0  0  0  0  0  0
   17.4602   -3.8474   21.1754 H   0  0  0  0  0  0  0  0  0  0  0  0
   15.8275   -0.3090   17.8664 H   0  0  0  0  0  0  0  0  0  0  0  0
   17.5770   -0.6794   17.8924 H   0  0  0  0  0  0  0  0  0  0  0  0
   16.9098    0.5575   19.0056 H   0  0  0  0  0  0  0  0  0  0  0  0
   14.4504   -0.9844   20.0609 H   0  0  0  0  0  0  0  0  0  0  0  0
   12.6992   -5.4874   19.9374 H   0  0  0  0  0  0  0  0  0  0  0  0
   14.3909   -5.7368   20.4221 H   0  0  0  0  0  0  0  0  0  0  0  0
   12.2820   -3.4261   18.0151 H   0  0  0  0  0  0  0  0  0  0  0  0
   16.9242   -4.0034   15.4153 H   0  0  0  0  0  0  0  0  0  0  0  0
   17.2014   -2.6313   16.4968 H   0  0  0  0  0  0  0  0  0  0  0  0
   16.6714   -1.4925   14.5397 H   0  0  0  0  0  0  0  0  0  0  0  0
   15.6130   -2.7409   13.9303 H   0  0  0  0  0  0  0  0  0  0  0  0
   14.3935   -0.7979   14.4997 H   0  0  0  0  0  0  0  0  0  0  0  0
   13.2250   -2.8526   14.8143 H   0  0  0  0  0  0  0  0  0  0  0  0
   12.7534   -1.6480   16.0106 H   0  0  0  0  0  0  0  0  0  0  0  0
  1  2  1  0
  2  3  1  0
  2  4  1  0
  4  5  1  0
  5  6  1  0
  6  7  1  0
  7  8  1  0
  8  9  2  0
  9 10  1  0
 10 11  1  0
 10 12  1  0
  5 13  1  0
 13 14  1  0
 14 15  2  0
 15 16  1  0
 16 17  2  0
 17 18  1  0
 17 19  1  0
 19 20  1  0
 20 21  1  0
 21 22  1  0
 12  7  2  0
 18 14  1  0
 22 16  1  0
  1 23  1  0
  1 24  1  0
  1 25  1  0
  2 26  1  0
  3 27  1  0
  3 28  1  0
  3 29  1  0
  4 30  1  0
  4 31  1  0
  6 32  1  0
  6 33  1  0
  8 34  1  0
 11 35  1  0
 11 36  1  0
 11 37  1  0
 12 38  1  0
 13 39  1  0
 13 40  1  0
 15 41  1  0
 19 42  1  0
 19 43  1  0
 20 44  1  0
 20 45  1  0
 21 46  1  0
 22 47  1  0
 22 48  1  0
M  END
>  <Energy>  (1409) 
62.56040485248986

>  <compound_id>  (1409) 
50718

>  <target_id>  (1409) 
1

>  <reference_id>  (1409) 
146

>  <inspiration_ids>  (1409) 
[96, 146]

>  <energy_score>  (1409) 
-51.7510782367724

>  <distance_score>  (1409) 
13.598754763824612

>  <path>  (1409) 
/opt/xchem-fragalysis-2/maxwin/BulkDock/SCRATCH/511022/C50718-P146/C50718-P146.minimised.mol

>  <scratch_subdir>  (1409) 
/opt/xchem-fragalysis-2/maxwin/BulkDock/SCRATCH/511022/C50718-P146

>  <fragmenstein_runtime>  (1409) 
27.118165016174316

>  <fragmenstein_outcome>  (1409) 
too moved

>  <fragmenstein_mode>  (1409) 
expansion

>  <fragmenstein_error>  (1409) 


$$$$
C50727-P96
     RDKit          3D

 40 42  0  0  0  0  0  0  0  0999 V2000
    3.3960  -21.4456   31.7679 N   0  0  0  0  0  0  0  0  0  0  0  0
    3.2884  -21.9308   30.1663 S   0  0  0  0  0  0  0  0  0  0  0  0
    2.7230  -20.8243   29.4302 O   0  0  0  0  0  0  0  0  0  0  0  0
    4.5559  -22.5296   29.8289 O   0  0  0  0  0  0  0  0  0  0  0  0
    2.1477  -23.1839   30.0397 C   0  0  0  0  0  0  0  0  0  0  0  0
    1.6538  -23.7180   28.8513 C   0  0  0  0  0  0  0  0  0  0  0  0
    0.7025  -24.6468   29.0689 N   0  0  0  0  0  0  0  0  0  0  0  0
    0.6429  -24.8274   30.4467 N   0  0  0  0  0  0  0  0  0  0  0  0
   -0.6060  -25.5489   31.1060 C   0  0  0  0  0  0  0  0  0  0  0  0
   -0.6257  -26.9917   31.8710 C   0  0  0  0  0  0  0  0  0  0  0  0
    0.4280  -27.5777   31.9399 O   0  0  0  0  0  0  0  0  0  0  0  0
   -2.0288  -27.3787   32.4149 N   0  0  0  0  0  0  0  0  0  0  0  0
   -2.5080  -28.6556   33.2565 C   0  0  0  0  0  0  0  0  0  0  0  0
   -3.6888  -28.7638   34.4692 C   0  0  0  0  0  0  0  0  0  0  0  0
   -5.6169  -28.5812   34.2495 C   0  0  0  0  0  0  0  0  0  0  0  0
   -7.1257  -29.5730   35.0892 C   0  0  0  0  0  0  0  0  0  0  0  0
   -6.6809  -31.1923   36.2756 C   0  0  0  0  0  0  0  0  0  0  0  0
   -4.7638  -31.3501   36.5403 C   0  0  0  0  0  0  0  0  0  0  0  0
   -3.4087  -30.1894   35.7874 C   0  0  0  0  0  0  0  0  0  0  0  0
   -4.6844  -32.2405   37.7372 C   0  0  0  0  0  0  0  0  0  0  0  0
   -5.9805  -32.0446   38.4686 N   0  0  0  0  0  0  0  0  0  0  0  0
   -7.1606  -31.8531   37.5667 C   0  0  0  0  0  0  0  0  0  0  0  0
    1.4801  -23.8701   31.0437 C   0  0  0  0  0  0  0  0  0  0  0  0
    3.2301  -20.4410   31.8339 H   0  0  0  0  0  0  0  0  0  0  0  0
    4.3065  -21.7191   32.1415 H   0  0  0  0  0  0  0  0  0  0  0  0
    1.9101  -23.4619   27.8313 H   0  0  0  0  0  0  0  0  0  0  0  0
   -1.2902  -25.6426   30.2574 H   0  0  0  0  0  0  0  0  0  0  0  0
   -0.9340  -24.8022   31.8339 H   0  0  0  0  0  0  0  0  0  0  0  0
   -2.6780  -26.6131   32.2499 H   0  0  0  0  0  0  0  0  0  0  0  0
   -1.5912  -29.0094   33.7423 H   0  0  0  0  0  0  0  0  0  0  0  0
   -2.7870  -29.4071   32.5109 H   0  0  0  0  0  0  0  0  0  0  0  0
   -5.8586  -27.7081   33.6146 H   0  0  0  0  0  0  0  0  0  0  0  0
   -7.9274  -28.8482   35.3095 H   0  0  0  0  0  0  0  0  0  0  0  0
   -2.3708  -30.4824   35.9650 H   0  0  0  0  0  0  0  0  0  0  0  0
   -3.8453  -31.9679   38.3819 H   0  0  0  0  0  0  0  0  0  0  0  0
   -4.5883  -33.2834   37.4233 H   0  0  0  0  0  0  0  0  0  0  0  0
   -5.8694  -31.1827   39.0059 H   0  0  0  0  0  0  0  0  0  0  0  0
   -7.9018  -31.2413   38.0861 H   0  0  0  0  0  0  0  0  0  0  0  0
   -7.5891  -32.8319   37.3328 H   0  0  0  0  0  0  0  0  0  0  0  0
    1.5063  -23.7795   32.1207 H   0  0  0  0  0  0  0  0  0  0  0  0
  1  2  1  0
  2  3  2  0
  2  4  2  0
  2  5  1  0
  5  6  1  0
  6  7  2  0
  7  8  1  0
  8  9  1  0
  9 10  1  0
 10 11  2  0
 10 12  1  0
 12 13  1  0
 13 14  1  0
 14 15  2  0
 15 16  1  0
 16 17  2  0
 17 18  1  0
 18 19  2  0
 18 20  1  0
 20 21  1  0
 21 22  1  0
  8 23  1  0
 23  5  2  0
 19 14  1  0
 22 17  1  0
  1 24  1  0
  1 25  1  0
  6 26  1  0
  9 27  1  0
  9 28  1  0
 12 29  1  0
 13 30  1  0
 13 31  1  0
 15 32  1  0
 16 33  1  0
 19 34  1  0
 20 35  1  0
 20 36  1  0
 21 37  1  0
 22 38  1  0
 22 39  1  0
 23 40  1  0
M  END
>  <Energy>  (1410) 
609.6677907027605

>  <compound_id>  (1410) 
50727

>  <target_id>  (1410) 
1

>  <reference_id>  (1410) 
96

>  <inspiration_ids>  (1410) 
[96, 146]

>  <energy_score>  (1410) 
614.8925548090334

>  <distance_score>  (1410) 
26.33983232378764

>  <path>  (1410) 
/opt/xchem-fragalysis-2/maxwin/BulkDock/SCRATCH/511022/C50727-P96/C50727-P96.minimised.mol

>  <scratch_subdir>  (1410) 
/opt/xchem-fragalysis-2/maxwin/BulkDock/SCRATCH/511022/C50727-P96

>  <fragmenstein_runtime>  (1410) 
20.592421293258667

>  <fragmenstein_outcome>  (1410) 
too moved

>  <fragmenstein_mode>  (1410) 
expansion

>  <fragmenstein_error>  (1410) 


$$$$
C50727-P146
     RDKit          3D

 40 42  0  0  0  0  0  0  0  0999 V2000
   10.3366  -12.2944   22.8958 N   0  0  0  0  0  0  0  0  0  0  0  0
   11.1351  -13.2658   21.7793 S   0  0  0  0  0  0  0  0  0  0  0  0
   12.2752  -13.8221   22.4660 O   0  0  0  0  0  0  0  0  0  0  0  0
   11.2448  -12.4839   20.5713 O   0  0  0  0  0  0  0  0  0  0  0  0
   10.1408  -14.5879   21.3904 C   0  0  0  0  0  0  0  0  0  0  0  0
    9.9598  -15.1406   20.1210 C   0  0  0  0  0  0  0  0  0  0  0  0
    9.0827  -16.1577   20.1336 N   0  0  0  0  0  0  0  0  0  0  0  0
    8.7187  -16.3008   21.4499 N   0  0  0  0  0  0  0  0  0  0  0  0
    7.5319  -17.1622   21.8105 C   0  0  0  0  0  0  0  0  0  0  0  0
    7.7235  -18.4193   22.7493 C   0  0  0  0  0  0  0  0  0  0  0  0
    8.7495  -18.5074   23.3711 O   0  0  0  0  0  0  0  0  0  0  0  0
    6.5194  -19.3034   22.7341 N   0  0  0  0  0  0  0  0  0  0  0  0
    6.2609  -20.6082   23.4036 C   0  0  0  0  0  0  0  0  0  0  0  0
    4.8750  -21.0117   24.0074 C   0  0  0  0  0  0  0  0  0  0  0  0
    3.6790  -21.0407   23.2582 C   0  0  0  0  0  0  0  0  0  0  0  0
    2.4791  -21.6235   23.7482 C   0  0  0  0  0  0  0  0  0  0  0  0
    2.4765  -22.2209   24.9919 C   0  0  0  0  0  0  0  0  0  0  0  0
    3.6248  -22.1930   25.7645 C   0  0  0  0  0  0  0  0  0  0  0  0
    4.8057  -21.5944   25.3010 C   0  0  0  0  0  0  0  0  0  0  0  0
    3.3679  -22.9038   27.0496 C   0  0  0  0  0  0  0  0  0  0  0  0
    2.0596  -23.5901   26.8828 N   0  0  0  0  0  0  0  0  0  0  0  0
    1.4023  -22.9625   25.7042 C   0  0  0  0  0  0  0  0  0  0  0  0
    9.3347  -15.3361   22.2267 C   0  0  0  0  0  0  0  0  0  0  0  0
   10.9177  -12.2244   23.7319 H   0  0  0  0  0  0  0  0  0  0  0  0
   10.1620  -11.3850   22.4650 H   0  0  0  0  0  0  0  0  0  0  0  0
   10.4084  -14.8448   19.1809 H   0  0  0  0  0  0  0  0  0  0  0  0
    7.1120  -17.4958   20.8550 H   0  0  0  0  0  0  0  0  0  0  0  0
    6.8273  -16.4787   22.2961 H   0  0  0  0  0  0  0  0  0  0  0  0
    5.8754  -18.9742   22.0322 H   0  0  0  0  0  0  0  0  0  0  0  0
    6.4961  -21.3675   22.6474 H   0  0  0  0  0  0  0  0  0  0  0  0
    7.0303  -20.7130   24.1765 H   0  0  0  0  0  0  0  0  0  0  0  0
    3.6653  -20.6171   22.2567 H   0  0  0  0  0  0  0  0  0  0  0  0
    1.5872  -21.6092   23.1294 H   0  0  0  0  0  0  0  0  0  0  0  0
    5.6960  -21.6345   25.9238 H   0  0  0  0  0  0  0  0  0  0  0  0
    4.1504  -23.6391   27.2623 H   0  0  0  0  0  0  0  0  0  0  0  0
    3.3068  -22.1939   27.8796 H   0  0  0  0  0  0  0  0  0  0  0  0
    2.2705  -24.5510   26.6124 H   0  0  0  0  0  0  0  0  0  0  0  0
    0.6084  -22.2890   26.0383 H   0  0  0  0  0  0  0  0  0  0  0  0
    0.9658  -23.7384   25.0669 H   0  0  0  0  0  0  0  0  0  0  0  0
    9.1331  -15.2714   23.2864 H   0  0  0  0  0  0  0  0  0  0  0  0
  1  2  1  0
  2  3  2  0
  2  4  2  0
  2  5  1  0
  5  6  1  0
  6  7  2  0
  7  8  1  0
  8  9  1  0
  9 10  1  0
 10 11  2  0
 10 12  1  0
 12 13  1  0
 13 14  1  0
 14 15  2  0
 15 16  1  0
 16 17  2  0
 17 18  1  0
 18 19  2  0
 18 20  1  0
 20 21  1  0
 21 22  1  0
  8 23  1  0
 23  5  2  0
 19 14  1  0
 22 17  1  0
  1 24  1  0
  1 25  1  0
  6 26  1  0
  9 27  1  0
  9 28  1  0
 12 29  1  0
 13 30  1  0
 13 31  1  0
 15 32  1  0
 16 33  1  0
 19 34  1  0
 20 35  1  0
 20 36  1  0
 21 37  1  0
 22 38  1  0
 22 39  1  0
 23 40  1  0
M  END
>  <Energy>  (1411) 
-26.582596006219955

>  <compound_id>  (1411) 
50727

>  <target_id>  (1411) 
1

>  <reference_id>  (1411) 
146

>  <inspiration_ids>  (1411) 
[96, 146]

>  <energy_score>  (1411) 
-21.357831899945836

>  <distance_score>  (1411) 
17.920485123003978

>  <path>  (1411) 
/opt/xchem-fragalysis-2/maxwin/BulkDock/SCRATCH/511022/C50727-P146/C50727-P146.minimised.mol

>  <scratch_subdir>  (1411) 
/opt/xchem-fragalysis-2/maxwin/BulkDock/SCRATCH/511022/C50727-P146

>  <fragmenstein_runtime>  (1411) 
24.81801724433899

>  <fragmenstein_outcome>  (1411) 
too moved

>  <fragmenstein_mode>  (1411) 
expansion

>  <fragmenstein_error>  (1411) 


$$$$
C50729-P96
     RDKit          3D

 42 44  0  0  0  0  0  0  0  0999 V2000
    1.2432  -11.2543   24.6572 O   0  0  0  0  0  0  0  0  0  0  0  0
    2.2677  -11.7233   25.1400 C   0  0  0  0  0  0  0  0  0  0  0  0
    2.4510  -13.0736   26.2078 N   0  0  0  0  0  0  0  0  0  0  0  0
    1.2173  -14.2518   26.8457 C   0  0  0  0  0  0  0  0  0  0  0  0
    0.3020  -15.7845   26.8888 C   0  0  0  0  0  0  0  0  0  0  0  0
   -0.7956  -16.3306   26.0625 C   0  0  0  0  0  0  0  0  0  0  0  0
   -1.3101  -17.6882   26.4224 C   0  0  0  0  0  0  0  0  0  0  0  0
   -0.9297  -18.6813   27.9184 C   0  0  0  0  0  0  0  0  0  0  0  0
   -0.1137  -18.4068   28.9706 C   0  0  0  0  0  0  0  0  0  0  0  0
    0.3176  -16.8206   28.4794 C   0  0  0  0  0  0  0  0  0  0  0  0
   -0.8313  -20.1392   29.1625 C   0  0  0  0  0  0  0  0  0  0  0  0
   -2.1157  -20.1101   29.8670 N   0  0  0  0  0  0  0  0  0  0  0  0
   -2.2840  -18.8139   29.3232 C   0  0  0  0  0  0  0  0  0  0  0  0
    3.5800  -10.8176   24.6734 C   0  0  0  0  0  0  0  0  0  0  0  0
    3.9534  -10.0120   25.4779 O   0  0  0  0  0  0  0  0  0  0  0  0
    4.0264  -11.0718   23.3085 N   0  0  0  0  0  0  0  0  0  0  0  0
    5.0786  -10.5157   22.5698 C   0  0  0  0  0  0  0  0  0  0  0  0
    6.0304   -9.5155   22.9490 C   0  0  0  0  0  0  0  0  0  0  0  0
    6.9157   -9.2159   21.9852 N   0  0  0  0  0  0  0  0  0  0  0  0
    6.5461  -10.0198   20.9739 N   0  0  0  0  0  0  0  0  0  0  0  0
    7.2931  -10.0093   19.7367 C   0  0  0  0  0  0  0  0  0  0  0  0
    8.6858  -10.5720   19.9156 C   0  0  0  0  0  0  0  0  0  0  0  0
    9.2743  -10.6762   18.6909 F   0  0  0  0  0  0  0  0  0  0  0  0
    5.4565  -10.8047   21.2739 C   0  0  0  0  0  0  0  0  0  0  0  0
    3.4496  -13.2438   26.3814 H   0  0  0  0  0  0  0  0  0  0  0  0
    1.9045  -14.8877   26.2936 H   0  0  0  0  0  0  0  0  0  0  0  0
    1.2480  -14.1350   27.9349 H   0  0  0  0  0  0  0  0  0  0  0  0
   -1.4680  -15.8623   25.4057 H   0  0  0  0  0  0  0  0  0  0  0  0
   -2.2796  -17.7868   25.9088 H   0  0  0  0  0  0  0  0  0  0  0  0
    0.8105  -16.2834   29.3127 H   0  0  0  0  0  0  0  0  0  0  0  0
   -0.7175  -20.7428   28.2458 H   0  0  0  0  0  0  0  0  0  0  0  0
   -0.3925  -20.9591   29.7801 H   0  0  0  0  0  0  0  0  0  0  0  0
   -2.7343  -20.8346   29.5305 H   0  0  0  0  0  0  0  0  0  0  0  0
   -1.9984  -18.2615   30.2339 H   0  0  0  0  0  0  0  0  0  0  0  0
   -3.3188  -18.5459   29.0611 H   0  0  0  0  0  0  0  0  0  0  0  0
    3.4302  -11.7758   22.8912 H   0  0  0  0  0  0  0  0  0  0  0  0
    6.0982   -9.0011   23.9001 H   0  0  0  0  0  0  0  0  0  0  0  0
    7.3309   -8.9764   19.3737 H   0  0  0  0  0  0  0  0  0  0  0  0
    6.7398  -10.5923   18.9924 H   0  0  0  0  0  0  0  0  0  0  0  0
    9.3126   -9.9261   20.5380 H   0  0  0  0  0  0  0  0  0  0  0  0
    8.6663  -11.5715   20.3614 H   0  0  0  0  0  0  0  0  0  0  0  0
    5.0569  -11.5004   20.5501 H   0  0  0  0  0  0  0  0  0  0  0  0
  1  2  2  0
  2  3  1  0
  3  4  1  0
  4  5  1  0
  5  6  2  0
  6  7  1  0
  7  8  2  0
  8  9  1  0
  9 10  2  0
  9 11  1  0
 11 12  1  0
 12 13  1  0
  2 14  1  0
 14 15  2  0
 14 16  1  0
 16 17  1  0
 17 18  1  0
 18 19  2  0
 19 20  1  0
 20 21  1  0
 21 22  1  0
 22 23  1  0
 20 24  1  0
 10  5  1  0
 24 17  2  0
 13  8  1  0
  3 25  1  0
  4 26  1  0
  4 27  1  0
  6 28  1  0
  7 29  1  0
 10 30  1  0
 11 31  1  0
 11 32  1  0
 12 33  1  0
 13 34  1  0
 13 35  1  0
 16 36  1  0
 18 37  1  0
 21 38  1  0
 21 39  1  0
 22 40  1  0
 22 41  1  0
 24 42  1  0
M  END
>  <Energy>  (1412) 
655.8620005455756

>  <compound_id>  (1412) 
50729

>  <target_id>  (1412) 
1

>  <reference_id>  (1412) 
96

>  <inspiration_ids>  (1412) 
[96, 146]

>  <energy_score>  (1412) 
581.5739386340417

>  <distance_score>  (1412) 
15.803290463255115

>  <path>  (1412) 
/opt/xchem-fragalysis-2/maxwin/BulkDock/SCRATCH/511022/C50729-P96/C50729-P96.minimised.mol

>  <scratch_subdir>  (1412) 
/opt/xchem-fragalysis-2/maxwin/BulkDock/SCRATCH/511022/C50729-P96

>  <fragmenstein_runtime>  (1412) 
20.235145807266235

>  <fragmenstein_outcome>  (1412) 
too moved

>  <fragmenstein_mode>  (1412) 
expansion

>  <fragmenstein_error>  (1412) 


$$$$
C50729-P146
     RDKit          3D

 42 44  0  0  0  0  0  0  0  0999 V2000
   -1.5792  -10.2295   21.9205 O   0  0  0  0  0  0  0  0  0  0  0  0
   -1.0735  -10.9959   22.6965 C   0  0  0  0  0  0  0  0  0  0  0  0
   -1.6558  -12.1019   23.4649 N   0  0  0  0  0  0  0  0  0  0  0  0
   -3.0560  -12.5552   23.5989 C   0  0  0  0  0  0  0  0  0  0  0  0
   -3.5408  -13.5155   24.7232 C   0  0  0  0  0  0  0  0  0  0  0  0
   -4.6953  -14.3221   24.4894 C   0  0  0  0  0  0  0  0  0  0  0  0
   -5.3007  -15.1174   25.4900 C   0  0  0  0  0  0  0  0  0  0  0  0
   -4.7422  -15.1232   26.7504 C   0  0  0  0  0  0  0  0  0  0  0  0
   -3.6253  -14.3408   27.0150 C   0  0  0  0  0  0  0  0  0  0  0  0
   -3.0350  -13.5314   26.0318 C   0  0  0  0  0  0  0  0  0  0  0  0
   -3.2304  -14.5153   28.4454 C   0  0  0  0  0  0  0  0  0  0  0  0
   -4.3289  -15.2863   29.0687 N   0  0  0  0  0  0  0  0  0  0  0  0
   -5.1401  -15.8675   27.9772 C   0  0  0  0  0  0  0  0  0  0  0  0
    0.5546  -10.8359   22.8250 C   0  0  0  0  0  0  0  0  0  0  0  0
    1.1602  -11.6297   23.4888 O   0  0  0  0  0  0  0  0  0  0  0  0
    1.0290   -9.7231   21.9986 N   0  0  0  0  0  0  0  0  0  0  0  0
    2.3285   -9.3146   21.6660 C   0  0  0  0  0  0  0  0  0  0  0  0
    3.6143   -9.8370   21.9947 C   0  0  0  0  0  0  0  0  0  0  0  0
    4.6345   -9.1502   21.4489 N   0  0  0  0  0  0  0  0  0  0  0  0
    4.0168   -8.1859   20.7450 N   0  0  0  0  0  0  0  0  0  0  0  0
    4.7967   -7.2394   19.9810 C   0  0  0  0  0  0  0  0  0  0  0  0
    5.5386   -7.9043   18.8423 C   0  0  0  0  0  0  0  0  0  0  0  0
    6.1475   -6.9388   18.0978 F   0  0  0  0  0  0  0  0  0  0  0  0
    2.6489   -8.2353   20.8556 C   0  0  0  0  0  0  0  0  0  0  0  0
   -0.9463  -12.4841   24.0881 H   0  0  0  0  0  0  0  0  0  0  0  0
   -3.6668  -11.6465   23.6591 H   0  0  0  0  0  0  0  0  0  0  0  0
   -3.2844  -13.0239   22.6339 H   0  0  0  0  0  0  0  0  0  0  0  0
   -5.1465  -14.3205   23.4968 H   0  0  0  0  0  0  0  0  0  0  0  0
   -6.1772  -15.7151   25.2601 H   0  0  0  0  0  0  0  0  0  0  0  0
   -2.1981  -12.8970   26.2936 H   0  0  0  0  0  0  0  0  0  0  0  0
   -2.2908  -15.0749   28.5066 H   0  0  0  0  0  0  0  0  0  0  0  0
   -3.1208  -13.5515   28.9507 H   0  0  0  0  0  0  0  0  0  0  0  0
   -3.9461  -16.0276   29.6495 H   0  0  0  0  0  0  0  0  0  0  0  0
   -4.9111  -16.9322   27.8597 H   0  0  0  0  0  0  0  0  0  0  0  0
   -6.2037  -15.7407   28.1982 H   0  0  0  0  0  0  0  0  0  0  0  0
    0.2259   -9.2072   21.6415 H   0  0  0  0  0  0  0  0  0  0  0  0
    3.8338  -10.6994   22.6137 H   0  0  0  0  0  0  0  0  0  0  0  0
    4.1240   -6.4657   19.5953 H   0  0  0  0  0  0  0  0  0  0  0  0
    5.4942   -6.7471   20.6674 H   0  0  0  0  0  0  0  0  0  0  0  0
    6.3115   -8.5911   19.2006 H   0  0  0  0  0  0  0  0  0  0  0  0
    4.8609   -8.4563   18.1835 H   0  0  0  0  0  0  0  0  0  0  0  0
    2.0223   -7.5176   20.3452 H   0  0  0  0  0  0  0  0  0  0  0  0
  1  2  2  0
  2  3  1  0
  3  4  1  0
  4  5  1  0
  5  6  2  0
  6  7  1  0
  7  8  2  0
  8  9  1  0
  9 10  2  0
  9 11  1  0
 11 12  1  0
 12 13  1  0
  2 14  1  0
 14 15  2  0
 14 16  1  0
 16 17  1  0
 17 18  1  0
 18 19  2  0
 19 20  1  0
 20 21  1  0
 21 22  1  0
 22 23  1  0
 20 24  1  0
 10  5  1  0
 24 17  2  0
 13  8  1  0
  3 25  1  0
  4 26  1  0
  4 27  1  0
  6 28  1  0
  7 29  1  0
 10 30  1  0
 11 31  1  0
 11 32  1  0
 12 33  1  0
 13 34  1  0
 13 35  1  0
 16 36  1  0
 18 37  1  0
 21 38  1  0
 21 39  1  0
 22 40  1  0
 22 41  1  0
 24 42  1  0
M  END
>  <Energy>  (1413) 
63.492558498129803

>  <compound_id>  (1413) 
50729

>  <target_id>  (1413) 
1

>  <reference_id>  (1413) 
146

>  <inspiration_ids>  (1413) 
[96, 146]

>  <energy_score>  (1413) 
-10.795503413402116

>  <distance_score>  (1413) 
16.93488815410745

>  <path>  (1413) 
/opt/xchem-fragalysis-2/maxwin/BulkDock/SCRATCH/511022/C50729-P146/C50729-P146.minimised.mol

>  <scratch_subdir>  (1413) 
/opt/xchem-fragalysis-2/maxwin/BulkDock/SCRATCH/511022/C50729-P146

>  <fragmenstein_runtime>  (1413) 
32.30296611785889

>  <fragmenstein_outcome>  (1413) 
too moved

>  <fragmenstein_mode>  (1413) 
expansion

>  <fragmenstein_error>  (1413) 


$$$$
C12659-P64
     RDKit          3D

 36 37  0  0  0  0  0  0  0  0999 V2000
    4.8100  -22.0554   15.4925 C   0  0  0  0  0  0  0  0  0  0  0  0
    3.3133  -21.8334   15.2802 C   0  0  0  0  0  0  0  0  0  0  0  0
    2.9332  -20.3168   15.1440 C   0  0  0  0  0  0  0  0  0  0  0  0
    3.9151  -19.2700   14.7439 N   0  0  0  0  0  0  0  0  0  0  0  0
    4.8260  -19.2022   13.6270 C   0  0  0  0  0  0  0  0  0  0  0  0
    5.0825  -20.0071   12.7805 O   0  0  0  0  0  0  0  0  0  0  0  0
    5.5779  -17.8921   13.5594 C   0  0  0  0  0  0  0  0  0  0  0  0
    6.0826  -17.0135   14.5561 C   0  0  0  0  0  0  0  0  0  0  0  0
    6.6828  -15.9082   14.0898 N   0  0  0  0  0  0  0  0  0  0  0  0
    6.6702  -16.1008   12.7616 N   0  0  0  0  0  0  0  0  0  0  0  0
    6.0203  -17.2520   12.4049 C   0  0  0  0  0  0  0  0  0  0  0  0
    2.6047  -22.5850   16.3755 N   0  0  0  0  0  0  0  0  0  0  0  0
    1.3296  -23.3157   16.3734 C   0  0  0  0  0  0  0  0  0  0  0  0
    0.4945  -23.4289   15.5179 O   0  0  0  0  0  0  0  0  0  0  0  0
    1.1855  -24.1169   17.7106 C   0  0  0  0  0  0  0  0  0  0  0  0
   -0.1698  -24.7462   18.0498 C   0  0  0  0  0  0  0  0  0  0  0  0
   -0.4278  -25.4588   19.1411 N   0  0  0  0  0  0  0  0  0  0  0  0
   -1.7507  -25.8398   19.0673 C   0  0  0  0  0  0  0  0  0  0  0  0
   -2.3265  -25.3244   17.9356 C   0  0  0  0  0  0  0  0  0  0  0  0
   -1.3071  -24.6880   17.2723 N   0  0  0  0  0  0  0  0  0  0  0  0
    5.4031  -21.6983   14.6490 H   0  0  0  0  0  0  0  0  0  0  0  0
    5.0283  -23.1237   15.6067 H   0  0  0  0  0  0  0  0  0  0  0  0
    5.1598  -21.5557   16.3998 H   0  0  0  0  0  0  0  0  0  0  0  0
    3.0194  -22.3297   14.3472 H   0  0  0  0  0  0  0  0  0  0  0  0
    2.1146  -20.2405   14.4199 H   0  0  0  0  0  0  0  0  0  0  0  0
    2.5299  -19.9721   16.1035 H   0  0  0  0  0  0  0  0  0  0  0  0
    3.8909  -18.3707   15.2049 H   0  0  0  0  0  0  0  0  0  0  0  0
    6.0173  -17.1059   15.6236 H   0  0  0  0  0  0  0  0  0  0  0  0
    7.1103  -15.4110   12.1582 H   0  0  0  0  0  0  0  0  0  0  0  0
    5.9182  -17.5324   11.3651 H   0  0  0  0  0  0  0  0  0  0  0  0
    3.0182  -22.6398   17.3016 H   0  0  0  0  0  0  0  0  0  0  0  0
    1.4771  -23.4723   18.5464 H   0  0  0  0  0  0  0  0  0  0  0  0
    1.9168  -24.9339   17.6606 H   0  0  0  0  0  0  0  0  0  0  0  0
   -2.2122  -26.4351   19.8445 H   0  0  0  0  0  0  0  0  0  0  0  0
   -3.3280  -25.3763   17.5322 H   0  0  0  0  0  0  0  0  0  0  0  0
   -1.3594  -24.2452   16.3616 H   0  0  0  0  0  0  0  0  0  0  0  0
  1  2  1  0
  2  3  1  0
  3  4  1  0
  4  5  1  0
  5  6  2  0
  5  7  1  0
  7  8  1  0
  8  9  2  0
  9 10  1  0
 10 11  1  0
  2 12  1  0
 12 13  1  0
 13 14  2  0
 13 15  1  0
 15 16  1  0
 16 17  2  0
 17 18  1  0
 18 19  2  0
 19 20  1  0
 11  7  2  0
 20 16  1  0
  1 21  1  0
  1 22  1  0
  1 23  1  0
  2 24  1  0
  3 25  1  0
  3 26  1  0
  4 27  1  0
  8 28  1  0
 10 29  1  0
 11 30  1  0
 12 31  1  0
 15 32  1  0
 15 33  1  0
 18 34  1  0
 19 35  1  0
 20 36  1  0
M  END
>  <Energy>  (1414) 
26.409126768641421

>  <compound_id>  (1414) 
12659

>  <target_id>  (1414) 
1

>  <reference_id>  (1414) 
64

>  <inspiration_ids>  (1414) 
[64, 81]

>  <energy_score>  (1414) 
-8.389325106312754

>  <distance_score>  (1414) 
15.17826425034987

>  <path>  (1414) 
/opt/xchem-fragalysis-2/maxwin/BulkDock/SCRATCH/511022/C12659-P64/C12659-P64.minimised.mol

>  <scratch_subdir>  (1414) 
/opt/xchem-fragalysis-2/maxwin/BulkDock/SCRATCH/511022/C12659-P64

>  <fragmenstein_runtime>  (1414) 
32.87703037261963

>  <fragmenstein_outcome>  (1414) 
too moved

>  <fragmenstein_mode>  (1414) 
expansion

>  <fragmenstein_error>  (1414) 


$$$$
C12659-P81
     RDKit          3D

 36 37  0  0  0  0  0  0  0  0999 V2000
    1.1905  -14.0971   17.6260 C   0  0  0  0  0  0  0  0  0  0  0  0
    2.0895  -14.8689   18.5704 C   0  0  0  0  0  0  0  0  0  0  0  0
    3.3584  -13.1695   18.2998 C   0  0  0  0  0  0  0  0  0  0  0  0
    3.2208  -11.3649   17.3391 N   0  0  0  0  0  0  0  0  0  0  0  0
    2.6202   -9.6390   17.9404 C   0  0  0  0  0  0  0  0  0  0  0  0
    2.1625   -9.5196   19.0245 O   0  0  0  0  0  0  0  0  0  0  0  0
    2.5280   -8.1017   17.1373 C   0  0  0  0  0  0  0  0  0  0  0  0
    1.2498   -7.4205   16.8953 C   0  0  0  0  0  0  0  0  0  0  0  0
    1.3166   -6.1501   16.4853 N   0  0  0  0  0  0  0  0  0  0  0  0
    2.5720   -5.8293   16.7666 N   0  0  0  0  0  0  0  0  0  0  0  0
    3.2256   -6.8615   17.3686 C   0  0  0  0  0  0  0  0  0  0  0  0
    1.0629  -15.8994   20.1310 N   0  0  0  0  0  0  0  0  0  0  0  0
   -0.1219  -17.3762   20.1492 C   0  0  0  0  0  0  0  0  0  0  0  0
   -0.5710  -17.9380   19.1495 O   0  0  0  0  0  0  0  0  0  0  0  0
   -0.7045  -18.4179   21.8750 C   0  0  0  0  0  0  0  0  0  0  0  0
   -1.7327  -19.7420   23.1601 C   0  0  0  0  0  0  0  0  0  0  0  0
   -2.8591  -20.5626   23.1158 N   0  0  0  0  0  0  0  0  0  0  0  0
   -4.2537  -20.8617   24.2394 C   0  0  0  0  0  0  0  0  0  0  0  0
   -4.1552  -19.9936   25.1568 C   0  0  0  0  0  0  0  0  0  0  0  0
   -2.4268  -19.5180   24.9864 N   0  0  0  0  0  0  0  0  0  0  0  0
    1.3335  -13.3029   18.2231 H   0  0  0  0  0  0  0  0  0  0  0  0
    1.4176  -14.2038   16.6038 H   0  0  0  0  0  0  0  0  0  0  0  0
    0.1814  -13.6286   17.6414 H   0  0  0  0  0  0  0  0  0  0  0  0
    2.4391  -14.5024   19.5299 H   0  0  0  0  0  0  0  0  0  0  0  0
    3.9999  -12.9362   19.1800 H   0  0  0  0  0  0  0  0  0  0  0  0
    4.0689  -13.8706   17.8719 H   0  0  0  0  0  0  0  0  0  0  0  0
    3.6530  -11.2658   16.4344 H   0  0  0  0  0  0  0  0  0  0  0  0
    0.2732   -7.8688   16.9949 H   0  0  0  0  0  0  0  0  0  0  0  0
    2.8664   -4.8641   16.6540 H   0  0  0  0  0  0  0  0  0  0  0  0
    4.1693   -6.6347   17.8472 H   0  0  0  0  0  0  0  0  0  0  0  0
    1.1981  -15.5988   21.0038 H   0  0  0  0  0  0  0  0  0  0  0  0
    0.2750  -18.7306   21.4929 H   0  0  0  0  0  0  0  0  0  0  0  0
   -0.0368  -18.8980   22.6018 H   0  0  0  0  0  0  0  0  0  0  0  0
   -5.0751  -21.5907   24.1332 H   0  0  0  0  0  0  0  0  0  0  0  0
   -4.4849  -20.0771   26.2090 H   0  0  0  0  0  0  0  0  0  0  0  0
   -2.0770  -18.7413   25.5251 H   0  0  0  0  0  0  0  0  0  0  0  0
  1  2  1  0
  2  3  1  0
  3  4  1  0
  4  5  1  0
  5  6  2  0
  5  7  1  0
  7  8  1  0
  8  9  2  0
  9 10  1  0
 10 11  1  0
  2 12  1  0
 12 13  1  0
 13 14  2  0
 13 15  1  0
 15 16  1  0
 16 17  2  0
 17 18  1  0
 18 19  2  0
 19 20  1  0
 11  7  2  0
 20 16  1  0
  1 21  1  0
  1 22  1  0
  1 23  1  0
  2 24  1  0
  3 25  1  0
  3 26  1  0
  4 27  1  0
  8 28  1  0
 10 29  1  0
 11 30  1  0
 12 31  1  0
 15 32  1  0
 15 33  1  0
 18 34  1  0
 19 35  1  0
 20 36  1  0
M  END
>  <Energy>  (1415) 
1281.8715890787748

>  <compound_id>  (1415) 
12659

>  <target_id>  (1415) 
1

>  <reference_id>  (1415) 
81

>  <inspiration_ids>  (1415) 
[64, 81]

>  <energy_score>  (1415) 
1247.0731372038201

>  <distance_score>  (1415) 
10.706970841564344

>  <path>  (1415) 
/opt/xchem-fragalysis-2/maxwin/BulkDock/SCRATCH/511022/C12659-P81/C12659-P81.minimised.mol

>  <scratch_subdir>  (1415) 
/opt/xchem-fragalysis-2/maxwin/BulkDock/SCRATCH/511022/C12659-P81

>  <fragmenstein_runtime>  (1415) 
24.682684659957886

>  <fragmenstein_outcome>  (1415) 
too moved

>  <fragmenstein_mode>  (1415) 
expansion

>  <fragmenstein_error>  (1415) 


$$$$
C10594-P64
     RDKit          3D

 36 37  0  0  0  0  0  0  0  0999 V2000
   -2.0860  -14.0251   25.4844 C   0  0  0  0  0  0  0  0  0  0  0  0
   -1.3695  -14.9626   24.5326 C   0  0  0  0  0  0  0  0  0  0  0  0
    0.5943  -14.2926   24.3093 C   0  0  0  0  0  0  0  0  0  0  0  0
    2.3007  -14.2196   23.2436 N   0  0  0  0  0  0  0  0  0  0  0  0
    3.1903  -12.7844   22.4341 C   0  0  0  0  0  0  0  0  0  0  0  0
    2.7871  -11.7038   22.6433 O   0  0  0  0  0  0  0  0  0  0  0  0
    4.5732  -12.7032   21.0739 C   0  0  0  0  0  0  0  0  0  0  0  0
    4.6913  -13.0731   19.5833 C   0  0  0  0  0  0  0  0  0  0  0  0
    5.9376  -12.8006   19.0562 C   0  0  0  0  0  0  0  0  0  0  0  0
    6.5126  -12.1167   20.0426 N   0  0  0  0  0  0  0  0  0  0  0  0
    5.6221  -11.7188   20.9721 N   0  0  0  0  0  0  0  0  0  0  0  0
   -2.3646  -16.5122   24.8941 N   0  0  0  0  0  0  0  0  0  0  0  0
   -1.9644  -17.9310   25.8440 C   0  0  0  0  0  0  0  0  0  0  0  0
   -0.9682  -18.0871   26.5276 O   0  0  0  0  0  0  0  0  0  0  0  0
   -2.8567  -19.3859   25.7980 C   0  0  0  0  0  0  0  0  0  0  0  0
   -4.7315  -20.0603   25.5753 C   0  0  0  0  0  0  0  0  0  0  0  0
   -5.6052  -19.9310   26.6243 N   0  0  0  0  0  0  0  0  0  0  0  0
   -5.9313  -21.3638   27.4072 C   0  0  0  0  0  0  0  0  0  0  0  0
   -5.4144  -22.3014   26.6407 C   0  0  0  0  0  0  0  0  0  0  0  0
   -4.9383  -21.3115   25.3384 N   0  0  0  0  0  0  0  0  0  0  0  0
   -2.7213  -13.1240   25.4019 H   0  0  0  0  0  0  0  0  0  0  0  0
   -1.3081  -13.3170   25.5032 H   0  0  0  0  0  0  0  0  0  0  0  0
   -2.3312  -14.5778   26.3741 H   0  0  0  0  0  0  0  0  0  0  0  0
   -1.5619  -15.0493   23.4847 H   0  0  0  0  0  0  0  0  0  0  0  0
    0.0716  -13.9409   23.4032 H   0  0  0  0  0  0  0  0  0  0  0  0
    0.9026  -13.7377   25.2885 H   0  0  0  0  0  0  0  0  0  0  0  0
    2.8154  -15.0672   23.0462 H   0  0  0  0  0  0  0  0  0  0  0  0
    3.9751  -13.5666   18.9447 H   0  0  0  0  0  0  0  0  0  0  0  0
    6.3874  -12.9947   18.0952 H   0  0  0  0  0  0  0  0  0  0  0  0
    7.4342  -11.6945   20.0505 H   0  0  0  0  0  0  0  0  0  0  0  0
   -3.2646  -16.6190   24.5077 H   0  0  0  0  0  0  0  0  0  0  0  0
   -3.4712  -19.5749   24.8671 H   0  0  0  0  0  0  0  0  0  0  0  0
   -2.2644  -19.7231   25.0306 H   0  0  0  0  0  0  0  0  0  0  0  0
   -6.9554  -21.4725   27.7527 H   0  0  0  0  0  0  0  0  0  0  0  0
   -5.8364  -23.2158   26.2800 H   0  0  0  0  0  0  0  0  0  0  0  0
   -5.1288  -21.6711   24.4321 H   0  0  0  0  0  0  0  0  0  0  0  0
  1  2  1  0
  2  3  1  0
  3  4  1  0
  4  5  1  0
  5  6  2  0
  5  7  1  0
  7  8  1  0
  8  9  2  0
  9 10  1  0
 10 11  1  0
  2 12  1  0
 12 13  1  0
 13 14  2  0
 13 15  1  0
 15 16  1  0
 16 17  2  0
 17 18  1  0
 18 19  2  0
 19 20  1  0
 11  7  2  0
 20 16  1  0
  1 21  1  0
  1 22  1  0
  1 23  1  0
  2 24  1  0
  3 25  1  0
  3 26  1  0
  4 27  1  0
  8 28  1  0
  9 29  1  0
 10 30  1  0
 12 31  1  0
 15 32  1  0
 15 33  1  0
 18 34  1  0
 19 35  1  0
 20 36  1  0
M  END
>  <Energy>  (1416) 
867.72496526961618

>  <compound_id>  (1416) 
10594

>  <target_id>  (1416) 
1

>  <reference_id>  (1416) 
64

>  <inspiration_ids>  (1416) 
[64, 81]

>  <energy_score>  (1416) 
798.2271312722015

>  <distance_score>  (1416) 
11.219278861401243

>  <path>  (1416) 
/opt/xchem-fragalysis-2/maxwin/BulkDock/SCRATCH/511022/C10594-P64/C10594-P64.minimised.mol

>  <scratch_subdir>  (1416) 
/opt/xchem-fragalysis-2/maxwin/BulkDock/SCRATCH/511022/C10594-P64

>  <fragmenstein_runtime>  (1416) 
20.00806975364685

>  <fragmenstein_outcome>  (1416) 
too moved

>  <fragmenstein_mode>  (1416) 
expansion

>  <fragmenstein_error>  (1416) 


$$$$
C10594-P81
     RDKit          3D

 36 37  0  0  0  0  0  0  0  0999 V2000
    2.1530  -12.4698   24.0543 C   0  0  0  0  0  0  0  0  0  0  0  0
    1.6068  -11.9133   22.7595 C   0  0  0  0  0  0  0  0  0  0  0  0
    3.2845  -12.4527   22.0545 C   0  0  0  0  0  0  0  0  0  0  0  0
    4.3199  -12.5502   20.6454 N   0  0  0  0  0  0  0  0  0  0  0  0
    5.6691  -11.8360   20.3213 C   0  0  0  0  0  0  0  0  0  0  0  0
    6.2759  -10.9858   20.9420 O   0  0  0  0  0  0  0  0  0  0  0  0
    6.3285  -12.1288   18.9800 C   0  0  0  0  0  0  0  0  0  0  0  0
    5.8542  -12.8058   17.8272 C   0  0  0  0  0  0  0  0  0  0  0  0
    6.7361  -12.4963   16.8134 C   0  0  0  0  0  0  0  0  0  0  0  0
    7.6887  -11.7074   17.3743 N   0  0  0  0  0  0  0  0  0  0  0  0
    7.5132  -11.5194   18.6838 N   0  0  0  0  0  0  0  0  0  0  0  0
    0.0243  -12.8887   22.8463 N   0  0  0  0  0  0  0  0  0  0  0  0
   -0.4979  -14.2834   23.9029 C   0  0  0  0  0  0  0  0  0  0  0  0
    0.3609  -14.5898   24.4901 O   0  0  0  0  0  0  0  0  0  0  0  0
   -2.1933  -15.4243   24.5585 C   0  0  0  0  0  0  0  0  0  0  0  0
   -2.5908  -17.2137   25.6638 C   0  0  0  0  0  0  0  0  0  0  0  0
   -2.6626  -18.9225   25.4031 N   0  0  0  0  0  0  0  0  0  0  0  0
   -4.4217  -19.7984   25.3056 C   0  0  0  0  0  0  0  0  0  0  0  0
   -5.1317  -18.8804   26.8942 C   0  0  0  0  0  0  0  0  0  0  0  0
   -3.6024  -17.6435   27.1709 N   0  0  0  0  0  0  0  0  0  0  0  0
    2.9840  -13.1746   24.0453 H   0  0  0  0  0  0  0  0  0  0  0  0
    2.5428  -11.5720   24.2780 H   0  0  0  0  0  0  0  0  0  0  0  0
    1.6500  -12.7901   24.9555 H   0  0  0  0  0  0  0  0  0  0  0  0
    0.8931  -11.2072   22.2842 H   0  0  0  0  0  0  0  0  0  0  0  0
    3.1798  -13.4878   22.3702 H   0  0  0  0  0  0  0  0  0  0  0  0
    3.8552  -11.6913   22.5623 H   0  0  0  0  0  0  0  0  0  0  0  0
    4.1453  -13.2703   19.9508 H   0  0  0  0  0  0  0  0  0  0  0  0
    4.9346  -13.3644   17.7347 H   0  0  0  0  0  0  0  0  0  0  0  0
    6.7508  -12.7496   15.7638 H   0  0  0  0  0  0  0  0  0  0  0  0
    8.4969  -11.2840   16.9316 H   0  0  0  0  0  0  0  0  0  0  0  0
   -0.7084  -12.5739   22.4203 H   0  0  0  0  0  0  0  0  0  0  0  0
   -2.3804  -14.7844   25.4391 H   0  0  0  0  0  0  0  0  0  0  0  0
   -3.1074  -15.3104   23.9726 H   0  0  0  0  0  0  0  0  0  0  0  0
   -4.6102  -20.7914   24.9357 H   0  0  0  0  0  0  0  0  0  0  0  0
   -5.6363  -19.8054   27.1231 H   0  0  0  0  0  0  0  0  0  0  0  0
   -3.8553  -16.8082   27.6407 H   0  0  0  0  0  0  0  0  0  0  0  0
  1  2  1  0
  2  3  1  0
  3  4  1  0
  4  5  1  0
  5  6  2  0
  5  7  1  0
  7  8  1  0
  8  9  2  0
  9 10  1  0
 10 11  1  0
  2 12  1  0
 12 13  1  0
 13 14  2  0
 13 15  1  0
 15 16  1  0
 16 17  2  0
 17 18  1  0
 18 19  2  0
 19 20  1  0
 11  7  2  0
 20 16  1  0
  1 21  1  0
  1 22  1  0
  1 23  1  0
  2 24  1  0
  3 25  1  0
  3 26  1  0
  4 27  1  0
  8 28  1  0
  9 29  1  0
 10 30  1  0
 12 31  1  0
 15 32  1  0
 15 33  1  0
 18 34  1  0
 19 35  1  0
 20 36  1  0
M  END
>  <Energy>  (1417) 
1183.7556045173574

>  <compound_id>  (1417) 
10594

>  <target_id>  (1417) 
1

>  <reference_id>  (1417) 
81

>  <inspiration_ids>  (1417) 
[64, 81]

>  <energy_score>  (1417) 
1114.2577705199442

>  <distance_score>  (1417) 
11.269688664198494

>  <path>  (1417) 
/opt/xchem-fragalysis-2/maxwin/BulkDock/SCRATCH/511022/C10594-P81/C10594-P81.minimised.mol

>  <scratch_subdir>  (1417) 
/opt/xchem-fragalysis-2/maxwin/BulkDock/SCRATCH/511022/C10594-P81

>  <fragmenstein_runtime>  (1417) 
19.988796949386597

>  <fragmenstein_outcome>  (1417) 
too moved

>  <fragmenstein_mode>  (1417) 
expansion

>  <fragmenstein_error>  (1417) 


$$$$
C10595-P64
     RDKit          3D

 42 43  0  0  0  0  0  0  0  0999 V2000
   -9.1530  -24.5076   28.5271 C   0  0  0  0  0  0  0  0  0  0  0  0
   -8.5228  -23.2058   27.7497 C   0  0  0  0  0  0  0  0  0  0  0  0
   -6.9098  -22.2905   27.3822 C   0  0  0  0  0  0  0  0  0  0  0  0
   -6.8764  -20.9146   27.4803 C   0  0  0  0  0  0  0  0  0  0  0  0
   -5.7231  -19.9513   26.6083 N   0  0  0  0  0  0  0  0  0  0  0  0
   -4.7035  -20.5977   25.8913 C   0  0  0  0  0  0  0  0  0  0  0  0
   -2.8437  -19.5110   26.1777 C   0  0  0  0  0  0  0  0  0  0  0  0
   -1.7132  -18.0721   26.6185 C   0  0  0  0  0  0  0  0  0  0  0  0
   -0.5991  -18.3365   26.3022 O   0  0  0  0  0  0  0  0  0  0  0  0
   -2.2067  -16.6989   27.1961 N   0  0  0  0  0  0  0  0  0  0  0  0
   -1.2922  -15.0237   27.4536 C   0  0  0  0  0  0  0  0  0  0  0  0
   -2.2004  -14.4610   25.8995 C   0  0  0  0  0  0  0  0  0  0  0  0
    0.5239  -13.9805   26.8230 C   0  0  0  0  0  0  0  0  0  0  0  0
    2.3183  -14.0046   27.1203 N   0  0  0  0  0  0  0  0  0  0  0  0
    3.1413  -14.7083   28.1638 C   0  0  0  0  0  0  0  0  0  0  0  0
    2.8181  -15.4966   29.0139 O   0  0  0  0  0  0  0  0  0  0  0  0
    4.5796  -14.1606   28.0663 C   0  0  0  0  0  0  0  0  0  0  0  0
    5.4091  -14.0912   26.8963 C   0  0  0  0  0  0  0  0  0  0  0  0
    6.4711  -13.2630   27.1751 C   0  0  0  0  0  0  0  0  0  0  0  0
    6.2565  -12.8607   28.4550 N   0  0  0  0  0  0  0  0  0  0  0  0
    5.1037  -13.3182   28.9872 N   0  0  0  0  0  0  0  0  0  0  0  0
   -5.3515  -22.1166   26.7754 N   0  0  0  0  0  0  0  0  0  0  0  0
  -10.2432  -24.3554   28.5235 H   0  0  0  0  0  0  0  0  0  0  0  0
   -8.8989  -24.6938   29.5687 H   0  0  0  0  0  0  0  0  0  0  0  0
   -9.0322  -25.4635   28.0089 H   0  0  0  0  0  0  0  0  0  0  0  0
   -9.1626  -22.4388   28.1859 H   0  0  0  0  0  0  0  0  0  0  0  0
   -8.9124  -23.5695   26.8094 H   0  0  0  0  0  0  0  0  0  0  0  0
   -7.6002  -20.2700   27.8215 H   0  0  0  0  0  0  0  0  0  0  0  0
   -2.5079  -19.4960   25.1911 H   0  0  0  0  0  0  0  0  0  0  0  0
   -2.1243  -20.0217   26.8323 H   0  0  0  0  0  0  0  0  0  0  0  0
   -3.1769  -16.7882   27.4526 H   0  0  0  0  0  0  0  0  0  0  0  0
   -1.7759  -14.7337   28.3828 H   0  0  0  0  0  0  0  0  0  0  0  0
   -1.5435  -13.8568   25.2872 H   0  0  0  0  0  0  0  0  0  0  0  0
   -2.8492  -13.6428   26.1889 H   0  0  0  0  0  0  0  0  0  0  0  0
   -2.5107  -15.2620   25.2126 H   0  0  0  0  0  0  0  0  0  0  0  0
    0.7965  -13.8136   25.7558 H   0  0  0  0  0  0  0  0  0  0  0  0
    0.4876  -12.9086   26.7809 H   0  0  0  0  0  0  0  0  0  0  0  0
    2.9253  -13.4775   26.5206 H   0  0  0  0  0  0  0  0  0  0  0  0
    5.1354  -14.5158   25.9464 H   0  0  0  0  0  0  0  0  0  0  0  0
    7.3188  -12.9162   26.6021 H   0  0  0  0  0  0  0  0  0  0  0  0
    6.8371  -12.2583   29.0302 H   0  0  0  0  0  0  0  0  0  0  0  0
   -4.7271  -22.8115   27.1412 H   0  0  0  0  0  0  0  0  0  0  0  0
  1  2  1  0
  2  3  1  0
  3  4  2  0
  4  5  1  0
  5  6  2  0
  6  7  1  0
  7  8  1  0
  8  9  2  0
  8 10  1  0
 10 11  1  0
 11 12  1  0
 11 13  1  0
 13 14  1  0
 14 15  1  0
 15 16  2  0
 15 17  1  0
 17 18  1  0
 18 19  2  0
 19 20  1  0
 20 21  1  0
  6 22  1  0
 22  3  1  0
 21 17  2  0
  1 23  1  0
  1 24  1  0
  1 25  1  0
  2 26  1  0
  2 27  1  0
  4 28  1  0
  7 29  1  0
  7 30  1  0
 10 31  1  0
 11 32  1  0
 12 33  1  0
 12 34  1  0
 12 35  1  0
 13 36  1  0
 13 37  1  0
 14 38  1  0
 18 39  1  0
 19 40  1  0
 20 41  1  0
 22 42  1  0
M  END
>  <Energy>  (1418) 
923.30604425620629

>  <compound_id>  (1418) 
10595

>  <target_id>  (1418) 
1

>  <reference_id>  (1418) 
64

>  <inspiration_ids>  (1418) 
[64, 81]

>  <energy_score>  (1418) 
853.3453902347121

>  <distance_score>  (1418) 
13.583933000935408

>  <path>  (1418) 
/opt/xchem-fragalysis-2/maxwin/BulkDock/SCRATCH/511022/C10595-P64/C10595-P64.minimised.mol

>  <scratch_subdir>  (1418) 
/opt/xchem-fragalysis-2/maxwin/BulkDock/SCRATCH/511022/C10595-P64

>  <fragmenstein_runtime>  (1418) 
25.92821455001831

>  <fragmenstein_outcome>  (1418) 
too moved

>  <fragmenstein_mode>  (1418) 
expansion

>  <fragmenstein_error>  (1418) 


$$$$
C10595-P81
     RDKit          3D

 42 43  0  0  0  0  0  0  0  0999 V2000
   -9.3634  -23.9091   27.3720 C   0  0  0  0  0  0  0  0  0  0  0  0
   -7.8605  -23.6509   26.8592 C   0  0  0  0  0  0  0  0  0  0  0  0
   -6.9693  -22.4003   27.2151 C   0  0  0  0  0  0  0  0  0  0  0  0
   -7.5884  -21.2200   27.3314 C   0  0  0  0  0  0  0  0  0  0  0  0
   -6.8330  -19.8817   26.8470 N   0  0  0  0  0  0  0  0  0  0  0  0
   -5.5164  -19.8993   26.7235 C   0  0  0  0  0  0  0  0  0  0  0  0
   -3.7420  -18.7044   27.2910 C   0  0  0  0  0  0  0  0  0  0  0  0
   -2.0844  -19.2195   26.1538 C   0  0  0  0  0  0  0  0  0  0  0  0
   -1.5388  -20.1647   26.6536 O   0  0  0  0  0  0  0  0  0  0  0  0
   -1.7807  -18.4103   24.6027 N   0  0  0  0  0  0  0  0  0  0  0  0
   -0.4511  -18.8738   22.8152 C   0  0  0  0  0  0  0  0  0  0  0  0
   -1.1365  -20.4753   22.7597 C   0  0  0  0  0  0  0  0  0  0  0  0
    0.2742  -17.6075   21.0269 C   0  0  0  0  0  0  0  0  0  0  0  0
    1.1708  -15.7636   20.3035 N   0  0  0  0  0  0  0  0  0  0  0  0
    2.1972  -15.1988   18.5670 C   0  0  0  0  0  0  0  0  0  0  0  0
    2.4822  -16.0716   17.7155 O   0  0  0  0  0  0  0  0  0  0  0  0
    2.8317  -13.8836   18.1177 C   0  0  0  0  0  0  0  0  0  0  0  0
    2.8833  -13.7499   16.5905 C   0  0  0  0  0  0  0  0  0  0  0  0
    3.8640  -12.8572   16.2303 C   0  0  0  0  0  0  0  0  0  0  0  0
    4.4697  -12.5808   17.4007 N   0  0  0  0  0  0  0  0  0  0  0  0
    4.0412  -13.3283   18.4228 N   0  0  0  0  0  0  0  0  0  0  0  0
   -5.5758  -21.7196   27.0556 N   0  0  0  0  0  0  0  0  0  0  0  0
   -9.8631  -23.0704   27.8595 H   0  0  0  0  0  0  0  0  0  0  0  0
   -9.3929  -24.7288   28.1063 H   0  0  0  0  0  0  0  0  0  0  0  0
   -9.9883  -24.2672   26.5447 H   0  0  0  0  0  0  0  0  0  0  0  0
   -7.6676  -23.7354   25.8053 H   0  0  0  0  0  0  0  0  0  0  0  0
   -7.6191  -24.6023   27.3005 H   0  0  0  0  0  0  0  0  0  0  0  0
   -8.6542  -21.1881   27.3640 H   0  0  0  0  0  0  0  0  0  0  0  0
   -3.3832  -17.5679   27.2128 H   0  0  0  0  0  0  0  0  0  0  0  0
   -4.7588  -18.1049   27.3440 H   0  0  0  0  0  0  0  0  0  0  0  0
   -2.3637  -17.5872   24.5387 H   0  0  0  0  0  0  0  0  0  0  0  0
   -1.2760  -18.7350   22.1311 H   0  0  0  0  0  0  0  0  0  0  0  0
   -1.9262  -20.6300   23.4867 H   0  0  0  0  0  0  0  0  0  0  0  0
   -1.8433  -20.6116   21.9706 H   0  0  0  0  0  0  0  0  0  0  0  0
   -0.4190  -21.2927   22.8003 H   0  0  0  0  0  0  0  0  0  0  0  0
   -0.6681  -17.0480   21.0117 H   0  0  0  0  0  0  0  0  0  0  0  0
    0.0941  -18.0982   20.0879 H   0  0  0  0  0  0  0  0  0  0  0  0
    1.1016  -14.9815   20.9095 H   0  0  0  0  0  0  0  0  0  0  0  0
    2.2338  -14.2935   15.9145 H   0  0  0  0  0  0  0  0  0  0  0  0
    4.1859  -12.4452   15.2859 H   0  0  0  0  0  0  0  0  0  0  0  0
    5.1909  -11.8974   17.6083 H   0  0  0  0  0  0  0  0  0  0  0  0
   -4.8772  -22.2675   26.6408 H   0  0  0  0  0  0  0  0  0  0  0  0
  1  2  1  0
  2  3  1  0
  3  4  2  0
  4  5  1  0
  5  6  2  0
  6  7  1  0
  7  8  1  0
  8  9  2  0
  8 10  1  0
 10 11  1  0
 11 12  1  0
 11 13  1  0
 13 14  1  0
 14 15  1  0
 15 16  2  0
 15 17  1  0
 17 18  1  0
 18 19  2  0
 19 20  1  0
 20 21  1  0
  6 22  1  0
 22  3  1  0
 21 17  2  0
  1 23  1  0
  1 24  1  0
  1 25  1  0
  2 26  1  0
  2 27  1  0
  4 28  1  0
  7 29  1  0
  7 30  1  0
 10 31  1  0
 11 32  1  0
 12 33  1  0
 12 34  1  0
 12 35  1  0
 13 36  1  0
 13 37  1  0
 14 38  1  0
 18 39  1  0
 19 40  1  0
 20 41  1  0
 22 42  1  0
M  END
>  <Energy>  (1419) 
1481.3385307727758

>  <compound_id>  (1419) 
10595

>  <target_id>  (1419) 
1

>  <reference_id>  (1419) 
81

>  <inspiration_ids>  (1419) 
[64, 81]

>  <energy_score>  (1419) 
1411.3778767513406

>  <distance_score>  (1419) 
11.08538199954913

>  <path>  (1419) 
/opt/xchem-fragalysis-2/maxwin/BulkDock/SCRATCH/511022/C10595-P81/C10595-P81.minimised.mol

>  <scratch_subdir>  (1419) 
/opt/xchem-fragalysis-2/maxwin/BulkDock/SCRATCH/511022/C10595-P81

>  <fragmenstein_runtime>  (1419) 
26.32604217529297

>  <fragmenstein_outcome>  (1419) 
too moved

>  <fragmenstein_mode>  (1419) 
expansion

>  <fragmenstein_error>  (1419) 


$$$$
C12660-P64
     RDKit          3D

 42 43  0  0  0  0  0  0  0  0999 V2000
   -6.9908  -22.3326   27.0566 C   0  0  0  0  0  0  0  0  0  0  0  0
   -5.5256  -22.2614   27.1271 C   0  0  0  0  0  0  0  0  0  0  0  0
   -5.2956  -21.3870   26.0361 C   0  0  0  0  0  0  0  0  0  0  0  0
   -5.5516  -20.1119   25.7559 C   0  0  0  0  0  0  0  0  0  0  0  0
   -4.9309  -19.8566   24.5603 N   0  0  0  0  0  0  0  0  0  0  0  0
   -3.9743  -20.7847   24.3318 C   0  0  0  0  0  0  0  0  0  0  0  0
   -2.3556  -20.7006   23.1806 C   0  0  0  0  0  0  0  0  0  0  0  0
   -1.4976  -19.1816   23.2786 C   0  0  0  0  0  0  0  0  0  0  0  0
   -1.6578  -18.6177   24.7804 O   0  0  0  0  0  0  0  0  0  0  0  0
   -0.6666  -18.3670   21.6325 N   0  0  0  0  0  0  0  0  0  0  0  0
    0.1561  -16.5223   21.1683 C   0  0  0  0  0  0  0  0  0  0  0  0
   -1.0855  -16.5937   20.0457 C   0  0  0  0  0  0  0  0  0  0  0  0
    1.8510  -15.3692   20.3000 C   0  0  0  0  0  0  0  0  0  0  0  0
    3.0723  -14.1186   19.1408 N   0  0  0  0  0  0  0  0  0  0  0  0
    4.4290  -12.7057   19.6462 C   0  0  0  0  0  0  0  0  0  0  0  0
    4.5674  -12.7011   20.8010 O   0  0  0  0  0  0  0  0  0  0  0  0
    5.5357  -11.1235   18.8682 C   0  0  0  0  0  0  0  0  0  0  0  0
    4.7891   -9.5815   17.9192 C   0  0  0  0  0  0  0  0  0  0  0  0
    3.5543   -9.9626   17.2488 N   0  0  0  0  0  0  0  0  0  0  0  0
    3.1698   -9.0980   18.1423 N   0  0  0  0  0  0  0  0  0  0  0  0
    4.8498   -9.3295   18.7921 C   0  0  0  0  0  0  0  0  0  0  0  0
   -4.9474  -21.8264   24.8285 N   0  0  0  0  0  0  0  0  0  0  0  0
   -7.3711  -21.3196   27.1162 H   0  0  0  0  0  0  0  0  0  0  0  0
   -7.1742  -22.7880   26.0884 H   0  0  0  0  0  0  0  0  0  0  0  0
   -7.6784  -22.8137   27.6995 H   0  0  0  0  0  0  0  0  0  0  0  0
   -4.9953  -23.1872   26.9948 H   0  0  0  0  0  0  0  0  0  0  0  0
   -5.0031  -21.7301   27.9070 H   0  0  0  0  0  0  0  0  0  0  0  0
   -6.0848  -19.3772   26.3426 H   0  0  0  0  0  0  0  0  0  0  0  0
   -1.6291  -21.4242   23.5146 H   0  0  0  0  0  0  0  0  0  0  0  0
   -2.7968  -20.8432   22.2311 H   0  0  0  0  0  0  0  0  0  0  0  0
   -0.8192  -18.9490   20.8710 H   0  0  0  0  0  0  0  0  0  0  0  0
   -0.2626  -15.8329   21.8492 H   0  0  0  0  0  0  0  0  0  0  0  0
   -2.0647  -16.9455   20.3795 H   0  0  0  0  0  0  0  0  0  0  0  0
   -1.3811  -15.6847   19.5250 H   0  0  0  0  0  0  0  0  0  0  0  0
   -0.9258  -17.4502   19.4066 H   0  0  0  0  0  0  0  0  0  0  0  0
    1.3696  -14.7589   20.9052 H   0  0  0  0  0  0  0  0  0  0  0  0
    2.5702  -14.9463   20.9691 H   0  0  0  0  0  0  0  0  0  0  0  0
    3.0314  -14.1633   18.1230 H   0  0  0  0  0  0  0  0  0  0  0  0
    5.3274   -8.2101   17.7304 H   0  0  0  0  0  0  0  0  0  0  0  0
    2.3182   -9.2641   18.6747 H   0  0  0  0  0  0  0  0  0  0  0  0
    5.1667   -8.2493   19.2433 H   0  0  0  0  0  0  0  0  0  0  0  0
   -5.0374  -22.8078   24.5887 H   0  0  0  0  0  0  0  0  0  0  0  0
  1  2  1  0
  2  3  1  0
  3  4  2  0
  4  5  1  0
  5  6  2  0
  6  7  1  0
  7  8  1  0
  8  9  2  0
  8 10  1  0
 10 11  1  0
 11 12  1  0
 11 13  1  0
 13 14  1  0
 14 15  1  0
 15 16  2  0
 15 17  1  0
 17 18  1  0
 18 19  2  0
 19 20  1  0
 20 21  1  0
  6 22  1  0
 22  3  1  0
 21 17  2  0
  1 23  1  0
  1 24  1  0
  1 25  1  0
  2 26  1  0
  2 27  1  0
  4 28  1  0
  7 29  1  0
  7 30  1  0
 10 31  1  0
 11 32  1  0
 12 33  1  0
 12 34  1  0
 12 35  1  0
 13 36  1  0
 13 37  1  0
 14 38  1  0
 18 39  1  0
 20 40  1  0
 21 41  1  0
 22 42  1  0
M  END
>  <Energy>  (1420) 
1770.0073063992018

>  <compound_id>  (1420) 
12660

>  <target_id>  (1420) 
1

>  <reference_id>  (1420) 
64

>  <inspiration_ids>  (1420) 
[64, 81]

>  <energy_score>  (1420) 
1734.7914767666716

>  <distance_score>  (1420) 
9.648547982910937

>  <path>  (1420) 
/opt/xchem-fragalysis-2/maxwin/BulkDock/SCRATCH/511022/C12660-P64/C12660-P64.minimised.mol

>  <scratch_subdir>  (1420) 
/opt/xchem-fragalysis-2/maxwin/BulkDock/SCRATCH/511022/C12660-P64

>  <fragmenstein_runtime>  (1420) 
26.444741249084473

>  <fragmenstein_outcome>  (1420) 
too moved

>  <fragmenstein_mode>  (1420) 
expansion

>  <fragmenstein_error>  (1420) 


$$$$
C12660-P81
     RDKit          3D

 42 43  0  0  0  0  0  0  0  0999 V2000
   -6.2558  -23.1091   23.6273 C   0  0  0  0  0  0  0  0  0  0  0  0
   -5.3667  -22.7496   24.8109 C   0  0  0  0  0  0  0  0  0  0  0  0
   -4.4549  -21.5178   24.5281 C   0  0  0  0  0  0  0  0  0  0  0  0
   -4.8533  -20.3405   24.8369 C   0  0  0  0  0  0  0  0  0  0  0  0
   -3.8869  -19.8770   23.9774 N   0  0  0  0  0  0  0  0  0  0  0  0
   -2.5869  -20.2261   22.9849 C   0  0  0  0  0  0  0  0  0  0  0  0
   -1.0649  -19.1429   22.3382 C   0  0  0  0  0  0  0  0  0  0  0  0
    0.3627  -18.1374   21.2356 C   0  0  0  0  0  0  0  0  0  0  0  0
    1.2379  -18.9174   20.9015 O   0  0  0  0  0  0  0  0  0  0  0  0
    0.5366  -16.2924   20.9102 N   0  0  0  0  0  0  0  0  0  0  0  0
    2.1444  -15.1327   20.1636 C   0  0  0  0  0  0  0  0  0  0  0  0
    2.4438  -14.6902   18.4085 C   0  0  0  0  0  0  0  0  0  0  0  0
    3.3809  -13.4673   20.7688 C   0  0  0  0  0  0  0  0  0  0  0  0
    5.2178  -13.1551   20.2413 N   0  0  0  0  0  0  0  0  0  0  0  0
    6.2721  -11.9377   20.6141 C   0  0  0  0  0  0  0  0  0  0  0  0
    5.9655  -11.0166   21.2246 O   0  0  0  0  0  0  0  0  0  0  0  0
    7.7944  -11.8858   20.3533 C   0  0  0  0  0  0  0  0  0  0  0  0
    8.5270  -10.7229   19.8779 C   0  0  0  0  0  0  0  0  0  0  0  0
    9.8511  -10.7413   20.0119 N   0  0  0  0  0  0  0  0  0  0  0  0
   10.0568  -11.9005   20.6147 N   0  0  0  0  0  0  0  0  0  0  0  0
    8.8912  -12.5797   20.8857 C   0  0  0  0  0  0  0  0  0  0  0  0
   -2.7375  -21.1146   23.8748 N   0  0  0  0  0  0  0  0  0  0  0  0
   -5.7211  -23.7297   22.9017 H   0  0  0  0  0  0  0  0  0  0  0  0
   -7.1208  -23.6824   23.9471 H   0  0  0  0  0  0  0  0  0  0  0  0
   -6.6178  -22.2241   23.0948 H   0  0  0  0  0  0  0  0  0  0  0  0
   -4.8635  -23.6354   25.1630 H   0  0  0  0  0  0  0  0  0  0  0  0
   -6.0038  -22.4823   25.6645 H   0  0  0  0  0  0  0  0  0  0  0  0
   -5.6927  -19.8549   25.2971 H   0  0  0  0  0  0  0  0  0  0  0  0
   -0.9255  -20.2509   22.3516 H   0  0  0  0  0  0  0  0  0  0  0  0
   -0.2536  -19.3464   23.0572 H   0  0  0  0  0  0  0  0  0  0  0  0
   -0.2323  -15.8254   21.3300 H   0  0  0  0  0  0  0  0  0  0  0  0
    1.5505  -14.5932   20.6533 H   0  0  0  0  0  0  0  0  0  0  0  0
    2.8031  -15.4816   17.7650 H   0  0  0  0  0  0  0  0  0  0  0  0
    1.6319  -14.1847   17.8881 H   0  0  0  0  0  0  0  0  0  0  0  0
    3.3151  -14.0380   18.3750 H   0  0  0  0  0  0  0  0  0  0  0  0
    3.6022  -12.7455   20.0085 H   0  0  0  0  0  0  0  0  0  0  0  0
    3.2599  -12.9527   21.7269 H   0  0  0  0  0  0  0  0  0  0  0  0
    5.6786  -13.8057   19.6355 H   0  0  0  0  0  0  0  0  0  0  0  0
    8.1561   -9.8459   19.4160 H   0  0  0  0  0  0  0  0  0  0  0  0
   11.0092  -12.1643   20.8501 H   0  0  0  0  0  0  0  0  0  0  0  0
    9.0049  -13.4922   21.4356 H   0  0  0  0  0  0  0  0  0  0  0  0
   -1.9012  -21.6464   24.0689 H   0  0  0  0  0  0  0  0  0  0  0  0
  1  2  1  0
  2  3  1  0
  3  4  2  0
  4  5  1  0
  5  6  2  0
  6  7  1  0
  7  8  1  0
  8  9  2  0
  8 10  1  0
 10 11  1  0
 11 12  1  0
 11 13  1  0
 13 14  1  0
 14 15  1  0
 15 16  2  0
 15 17  1  0
 17 18  1  0
 18 19  2  0
 19 20  1  0
 20 21  1  0
  6 22  1  0
 22  3  1  0
 21 17  2  0
  1 23  1  0
  1 24  1  0
  1 25  1  0
  2 26  1  0
  2 27  1  0
  4 28  1  0
  7 29  1  0
  7 30  1  0
 10 31  1  0
 11 32  1  0
 12 33  1  0
 12 34  1  0
 12 35  1  0
 13 36  1  0
 13 37  1  0
 14 38  1  0
 18 39  1  0
 20 40  1  0
 21 41  1  0
 22 42  1  0
M  END
>  <Energy>  (1421) 
1111.7314660962988

>  <compound_id>  (1421) 
12660

>  <target_id>  (1421) 
1

>  <reference_id>  (1421) 
81

>  <inspiration_ids>  (1421) 
[64, 81]

>  <energy_score>  (1421) 
1076.515636463751

>  <distance_score>  (1421) 
10.5070233205052

>  <path>  (1421) 
/opt/xchem-fragalysis-2/maxwin/BulkDock/SCRATCH/511022/C12660-P81/C12660-P81.minimised.mol

>  <scratch_subdir>  (1421) 
/opt/xchem-fragalysis-2/maxwin/BulkDock/SCRATCH/511022/C12660-P81

>  <fragmenstein_runtime>  (1421) 
23.31410503387451

>  <fragmenstein_outcome>  (1421) 
too moved

>  <fragmenstein_mode>  (1421) 
expansion

>  <fragmenstein_error>  (1421) 


$$$$
C46834-P64
     RDKit          3D

 46 48  0  0  0  0  0  0  0  0999 V2000
   -0.9238  -14.8401   22.4261 C   0  0  0  0  0  0  0  0  0  0  0  0
   -1.1390  -14.6753   24.2242 C   0  0  0  0  0  0  0  0  0  0  0  0
    0.8007  -14.0660   24.0334 C   0  0  0  0  0  0  0  0  0  0  0  0
    2.1171  -12.6245   23.7619 N   0  0  0  0  0  0  0  0  0  0  0  0
    3.3806  -12.3595   22.4595 C   0  0  0  0  0  0  0  0  0  0  0  0
    3.4680  -13.0903   21.5050 O   0  0  0  0  0  0  0  0  0  0  0  0
    4.7153  -11.0134   22.3329 C   0  0  0  0  0  0  0  0  0  0  0  0
    5.3950  -10.0905   23.1585 N   0  0  0  0  0  0  0  0  0  0  0  0
    6.6219   -9.7727   22.6444 N   0  0  0  0  0  0  0  0  0  0  0  0
    6.9633  -10.4482   21.5396 C   0  0  0  0  0  0  0  0  0  0  0  0
    5.9057  -11.2431   21.2078 C   0  0  0  0  0  0  0  0  0  0  0  0
    6.2853  -12.1803   20.1095 C   0  0  0  0  0  0  0  0  0  0  0  0
    7.5606  -11.4633   19.5334 C   0  0  0  0  0  0  0  0  0  0  0  0
    8.1541  -10.5896   20.6934 C   0  0  0  0  0  0  0  0  0  0  0  0
   -2.2003  -16.2466   24.7218 N   0  0  0  0  0  0  0  0  0  0  0  0
   -1.7038  -17.8044   25.7061 C   0  0  0  0  0  0  0  0  0  0  0  0
   -0.6287  -17.9817   26.2746 O   0  0  0  0  0  0  0  0  0  0  0  0
   -2.5235  -19.0910   25.7683 C   0  0  0  0  0  0  0  0  0  0  0  0
   -3.9496  -19.9250   24.7065 C   0  0  0  0  0  0  0  0  0  0  0  0
   -5.1527  -19.4459   24.7046 N   0  0  0  0  0  0  0  0  0  0  0  0
   -5.4041  -19.9318   25.8994 C   0  0  0  0  0  0  0  0  0  0  0  0
   -4.9785  -21.2105   25.8041 C   0  0  0  0  0  0  0  0  0  0  0  0
   -4.7426  -21.1446   24.4420 N   0  0  0  0  0  0  0  0  0  0  0  0
   -5.9512  -21.3981   22.9797 C   0  0  0  0  0  0  0  0  0  0  0  0
   -1.7501  -14.7117   21.6592 H   0  0  0  0  0  0  0  0  0  0  0  0
   -0.2281  -14.0661   22.3056 H   0  0  0  0  0  0  0  0  0  0  0  0
   -0.3648  -15.7093   21.9421 H   0  0  0  0  0  0  0  0  0  0  0  0
   -0.7082  -15.4589   24.5162 H   0  0  0  0  0  0  0  0  0  0  0  0
    0.8983  -13.8541   25.1754 H   0  0  0  0  0  0  0  0  0  0  0  0
    1.3889  -14.7196   23.4104 H   0  0  0  0  0  0  0  0  0  0  0  0
    2.2676  -11.9661   24.4974 H   0  0  0  0  0  0  0  0  0  0  0  0
    7.1835   -9.1038   23.1587 H   0  0  0  0  0  0  0  0  0  0  0  0
    5.5408  -12.3591   19.3380 H   0  0  0  0  0  0  0  0  0  0  0  0
    6.5867  -13.1512   20.5124 H   0  0  0  0  0  0  0  0  0  0  0  0
    8.2914  -12.1733   19.1341 H   0  0  0  0  0  0  0  0  0  0  0  0
    7.2541  -10.8012   18.7124 H   0  0  0  0  0  0  0  0  0  0  0  0
    8.9479  -11.1326   21.2152 H   0  0  0  0  0  0  0  0  0  0  0  0
    8.5383   -9.6381   20.3176 H   0  0  0  0  0  0  0  0  0  0  0  0
   -3.1646  -16.3203   24.4288 H   0  0  0  0  0  0  0  0  0  0  0  0
   -2.6997  -18.2090   25.2032 H   0  0  0  0  0  0  0  0  0  0  0  0
   -2.5714  -19.1917   26.8205 H   0  0  0  0  0  0  0  0  0  0  0  0
   -5.9939  -19.6711   26.7184 H   0  0  0  0  0  0  0  0  0  0  0  0
   -5.2656  -22.0311   26.5059 H   0  0  0  0  0  0  0  0  0  0  0  0
   -6.6481  -20.5561   22.8723 H   0  0  0  0  0  0  0  0  0  0  0  0
   -6.2359  -22.4669   23.0544 H   0  0  0  0  0  0  0  0  0  0  0  0
   -5.4305  -21.4421   22.0023 H   0  0  0  0  0  0  0  0  0  0  0  0
  1  2  1  0
  2  3  1  0
  3  4  1  0
  4  5  1  0
  5  6  2  0
  5  7  1  0
  7  8  2  0
  8  9  1  0
  9 10  1  0
 10 11  2  0
 11 12  1  0
 12 13  1  0
 13 14  1  0
  2 15  1  0
 15 16  1  0
 16 17  2  0
 16 18  1  0
 18 19  1  0
 19 20  2  0
 20 21  1  0
 21 22  2  0
 22 23  1  0
 23 24  1  0
 11  7  1  0
 23 19  1  0
 14 10  1  0
  1 25  1  0
  1 26  1  0
  1 27  1  0
  2 28  1  0
  3 29  1  0
  3 30  1  0
  4 31  1  0
  9 32  1  0
 12 33  1  0
 12 34  1  0
 13 35  1  0
 13 36  1  0
 14 37  1  0
 14 38  1  0
 15 39  1  0
 18 40  1  0
 18 41  1  0
 21 42  1  0
 22 43  1  0
 24 44  1  0
 24 45  1  0
 24 46  1  0
M  END
>  <Energy>  (1422) 
1008.1306385988765

>  <compound_id>  (1422) 
46834

>  <target_id>  (1422) 
1

>  <reference_id>  (1422) 
64

>  <inspiration_ids>  (1422) 
[64, 81]

>  <energy_score>  (1422) 
911.6003872872354

>  <distance_score>  (1422) 
11.12660275687616

>  <path>  (1422) 
/opt/xchem-fragalysis-2/maxwin/BulkDock/SCRATCH/511022/C46834-P64/C46834-P64.minimised.mol

>  <scratch_subdir>  (1422) 
/opt/xchem-fragalysis-2/maxwin/BulkDock/SCRATCH/511022/C46834-P64

>  <fragmenstein_runtime>  (1422) 
51.49404191970825

>  <fragmenstein_outcome>  (1422) 
too moved

>  <fragmenstein_mode>  (1422) 
expansion

>  <fragmenstein_error>  (1422) 


$$$$
C46834-P81
     RDKit          3D

 46 48  0  0  0  0  0  0  0  0999 V2000
   -0.4369  -14.1092   22.1865 C   0  0  0  0  0  0  0  0  0  0  0  0
   -1.8272  -13.7307   20.8567 C   0  0  0  0  0  0  0  0  0  0  0  0
   -2.3436  -12.0568   20.3139 C   0  0  0  0  0  0  0  0  0  0  0  0
   -1.6856  -10.7488   20.3307 N   0  0  0  0  0  0  0  0  0  0  0  0
   -1.8594   -9.6109   21.1984 C   0  0  0  0  0  0  0  0  0  0  0  0
   -2.5308   -9.4738   22.1787 O   0  0  0  0  0  0  0  0  0  0  0  0
   -1.0821   -8.3899   20.6706 C   0  0  0  0  0  0  0  0  0  0  0  0
   -0.9967   -8.0771   19.3388 N   0  0  0  0  0  0  0  0  0  0  0  0
   -0.0988   -7.0618   19.2491 N   0  0  0  0  0  0  0  0  0  0  0  0
    0.2500   -6.6033   20.4614 C   0  0  0  0  0  0  0  0  0  0  0  0
   -0.3739   -7.3938   21.3847 C   0  0  0  0  0  0  0  0  0  0  0  0
   -0.0809   -6.9403   22.7535 C   0  0  0  0  0  0  0  0  0  0  0  0
    0.5623   -5.5280   22.4932 C   0  0  0  0  0  0  0  0  0  0  0  0
    1.0538   -5.5061   21.0034 C   0  0  0  0  0  0  0  0  0  0  0  0
   -2.3800  -14.8268   21.7149 N   0  0  0  0  0  0  0  0  0  0  0  0
   -2.1828  -15.3415   23.7844 C   0  0  0  0  0  0  0  0  0  0  0  0
   -1.5760  -14.5630   24.5497 O   0  0  0  0  0  0  0  0  0  0  0  0
   -2.6723  -17.2022   24.9307 C   0  0  0  0  0  0  0  0  0  0  0  0
   -3.0505  -19.3528   25.2195 C   0  0  0  0  0  0  0  0  0  0  0  0
   -4.0297  -19.9330   24.1717 N   0  0  0  0  0  0  0  0  0  0  0  0
   -5.2858  -19.3760   24.4724 C   0  0  0  0  0  0  0  0  0  0  0  0
   -5.4979  -19.7503   25.7344 C   0  0  0  0  0  0  0  0  0  0  0  0
   -4.5277  -20.6043   25.3964 N   0  0  0  0  0  0  0  0  0  0  0  0
   -5.1540  -22.0125   26.4244 C   0  0  0  0  0  0  0  0  0  0  0  0
   -0.5554  -14.1849   23.2110 H   0  0  0  0  0  0  0  0  0  0  0  0
    0.2628  -14.8875   21.9181 H   0  0  0  0  0  0  0  0  0  0  0  0
   -0.2110  -13.0944   22.5122 H   0  0  0  0  0  0  0  0  0  0  0  0
   -1.9266  -14.4167   19.9897 H   0  0  0  0  0  0  0  0  0  0  0  0
   -3.4118  -11.8635   20.4114 H   0  0  0  0  0  0  0  0  0  0  0  0
   -2.2471  -12.2036   19.2254 H   0  0  0  0  0  0  0  0  0  0  0  0
   -1.0997  -10.4771   19.5423 H   0  0  0  0  0  0  0  0  0  0  0  0
    0.1663   -6.7343   18.3269 H   0  0  0  0  0  0  0  0  0  0  0  0
    0.6521   -7.5859   23.2359 H   0  0  0  0  0  0  0  0  0  0  0  0
   -0.9710   -6.8570   23.3815 H   0  0  0  0  0  0  0  0  0  0  0  0
    1.3697   -5.3065   23.1983 H   0  0  0  0  0  0  0  0  0  0  0  0
   -0.2102   -4.7584   22.6240 H   0  0  0  0  0  0  0  0  0  0  0  0
    0.8530   -4.5405   20.5329 H   0  0  0  0  0  0  0  0  0  0  0  0
    2.1229   -5.7327   20.9484 H   0  0  0  0  0  0  0  0  0  0  0  0
   -2.8461  -15.6738   21.1694 H   0  0  0  0  0  0  0  0  0  0  0  0
   -2.9015  -16.8063   25.9257 H   0  0  0  0  0  0  0  0  0  0  0  0
   -1.7235  -17.6096   25.3459 H   0  0  0  0  0  0  0  0  0  0  0  0
   -5.9803  -18.9036   23.7209 H   0  0  0  0  0  0  0  0  0  0  0  0
   -6.1022  -19.8564   26.5933 H   0  0  0  0  0  0  0  0  0  0  0  0
   -5.7222  -21.6025   27.2448 H   0  0  0  0  0  0  0  0  0  0  0  0
   -4.5443  -22.8087   26.8447 H   0  0  0  0  0  0  0  0  0  0  0  0
   -5.7954  -22.6492   25.8013 H   0  0  0  0  0  0  0  0  0  0  0  0
  1  2  1  0
  2  3  1  0
  3  4  1  0
  4  5  1  0
  5  6  2  0
  5  7  1  0
  7  8  2  0
  8  9  1  0
  9 10  1  0
 10 11  2  0
 11 12  1  0
 12 13  1  0
 13 14  1  0
  2 15  1  0
 15 16  1  0
 16 17  2  0
 16 18  1  0
 18 19  1  0
 19 20  2  0
 20 21  1  0
 21 22  2  0
 22 23  1  0
 23 24  1  0
 11  7  1  0
 23 19  1  0
 14 10  1  0
  1 25  1  0
  1 26  1  0
  1 27  1  0
  2 28  1  0
  3 29  1  0
  3 30  1  0
  4 31  1  0
  9 32  1  0
 12 33  1  0
 12 34  1  0
 13 35  1  0
 13 36  1  0
 14 37  1  0
 14 38  1  0
 15 39  1  0
 18 40  1  0
 18 41  1  0
 21 42  1  0
 22 43  1  0
 24 44  1  0
 24 45  1  0
 24 46  1  0
M  END
>  <Energy>  (1423) 
1264.4504605339141

>  <compound_id>  (1423) 
46834

>  <target_id>  (1423) 
1

>  <reference_id>  (1423) 
81

>  <inspiration_ids>  (1423) 
[64, 81]

>  <energy_score>  (1423) 
1167.920209222271

>  <distance_score>  (1423) 
12.5735768666554

>  <path>  (1423) 
/opt/xchem-fragalysis-2/maxwin/BulkDock/SCRATCH/511022/C46834-P81/C46834-P81.minimised.mol

>  <scratch_subdir>  (1423) 
/opt/xchem-fragalysis-2/maxwin/BulkDock/SCRATCH/511022/C46834-P81

>  <fragmenstein_runtime>  (1423) 
42.84807324409485

>  <fragmenstein_outcome>  (1423) 
too moved

>  <fragmenstein_mode>  (1423) 
expansion

>  <fragmenstein_error>  (1423) 


$$$$
C12661-P64
     RDKit          3D

 43 45  0  0  0  0  0  0  0  0999 V2000
   -3.7439  -16.4830   15.2758 C   0  0  0  0  0  0  0  0  0  0  0  0
   -3.9696  -16.1273   16.7947 C   0  0  0  0  0  0  0  0  0  0  0  0
   -2.3358  -14.9357   17.0315 C   0  0  0  0  0  0  0  0  0  0  0  0
   -1.0786  -14.1809   16.1983 N   0  0  0  0  0  0  0  0  0  0  0  0
    0.7329  -13.8150   16.7108 C   0  0  0  0  0  0  0  0  0  0  0  0
    1.3313  -14.1021   17.7311 O   0  0  0  0  0  0  0  0  0  0  0  0
    1.7979  -12.6742   15.4763 C   0  0  0  0  0  0  0  0  0  0  0  0
    1.2661  -12.0965   13.9947 C   0  0  0  0  0  0  0  0  0  0  0  0
    2.3242  -10.8998   13.3794 N   0  0  0  0  0  0  0  0  0  0  0  0
    3.6265  -10.8429   14.3909 N   0  0  0  0  0  0  0  0  0  0  0  0
    3.4320  -11.7603   15.6318 C   0  0  0  0  0  0  0  0  0  0  0  0
   -4.8980  -17.4005   16.6407 N   0  0  0  0  0  0  0  0  0  0  0  0
   -6.3440  -17.5195   16.4904 C   0  0  0  0  0  0  0  0  0  0  0  0
   -7.1921  -16.6720   16.3655 O   0  0  0  0  0  0  0  0  0  0  0  0
   -6.9336  -18.9979   16.5655 C   0  0  0  0  0  0  0  0  0  0  0  0
   -6.5481  -20.1387   17.5564 C   0  0  0  0  0  0  0  0  0  0  0  0
   -6.2941  -21.3897   17.1767 N   0  0  0  0  0  0  0  0  0  0  0  0
   -6.3293  -22.1870   18.3014 C   0  0  0  0  0  0  0  0  0  0  0  0
   -6.5147  -21.4231   19.4165 C   0  0  0  0  0  0  0  0  0  0  0  0
   -6.6215  -20.1427   18.9455 N   0  0  0  0  0  0  0  0  0  0  0  0
   -3.6615  -17.0337   18.3761 C   0  0  0  0  0  0  0  0  0  0  0  0
   -4.8270  -17.7449   19.1253 C   0  0  0  0  0  0  0  0  0  0  0  0
   -3.6433  -18.5176   18.7312 C   0  0  0  0  0  0  0  0  0  0  0  0
   -3.0335  -15.7616   14.9219 H   0  0  0  0  0  0  0  0  0  0  0  0
   -4.6314  -16.5192   14.6276 H   0  0  0  0  0  0  0  0  0  0  0  0
   -3.2889  -17.4217   15.0370 H   0  0  0  0  0  0  0  0  0  0  0  0
   -2.9006  -14.0091   16.9175 H   0  0  0  0  0  0  0  0  0  0  0  0
   -1.9436  -15.0055   18.0636 H   0  0  0  0  0  0  0  0  0  0  0  0
   -1.2317  -13.8812   15.2664 H   0  0  0  0  0  0  0  0  0  0  0  0
    0.4116  -12.4279   13.3799 H   0  0  0  0  0  0  0  0  0  0  0  0
    4.4376  -10.3081   14.1071 H   0  0  0  0  0  0  0  0  0  0  0  0
    3.8065  -11.4696   16.6043 H   0  0  0  0  0  0  0  0  0  0  0  0
   -4.4907  -18.3201   16.6359 H   0  0  0  0  0  0  0  0  0  0  0  0
   -8.0126  -18.8619   16.7344 H   0  0  0  0  0  0  0  0  0  0  0  0
   -6.8924  -19.3892   15.5444 H   0  0  0  0  0  0  0  0  0  0  0  0
   -6.2083  -23.2608   18.2377 H   0  0  0  0  0  0  0  0  0  0  0  0
   -6.5812  -21.6565   20.4704 H   0  0  0  0  0  0  0  0  0  0  0  0
   -6.7447  -19.3512   19.5574 H   0  0  0  0  0  0  0  0  0  0  0  0
   -2.9304  -16.5321   19.0172 H   0  0  0  0  0  0  0  0  0  0  0  0
   -5.7792  -17.8612   18.6536 H   0  0  0  0  0  0  0  0  0  0  0  0
   -5.1255  -17.6041   20.1469 H   0  0  0  0  0  0  0  0  0  0  0  0
   -2.9045  -18.7902   19.4676 H   0  0  0  0  0  0  0  0  0  0  0  0
   -3.9459  -19.3482   18.1447 H   0  0  0  0  0  0  0  0  0  0  0  0
  1  2  1  0
  2  3  1  0
  3  4  1  0
  4  5  1  0
  5  6  2  0
  5  7  1  0
  7  8  1  0
  8  9  2  0
  9 10  1  0
 10 11  1  0
  2 12  1  0
 12 13  1  0
 13 14  2  0
 13 15  1  0
 15 16  1  0
 16 17  2  0
 17 18  1  0
 18 19  2  0
 19 20  1  0
  2 21  1  0
 21 22  1  0
 22 23  1  0
 11  7  2  0
 20 16  1  0
 23 21  1  0
  1 24  1  0
  1 25  1  0
  1 26  1  0
  3 27  1  0
  3 28  1  0
  4 29  1  0
  8 30  1  0
 10 31  1  0
 11 32  1  0
 12 33  1  0
 15 34  1  0
 15 35  1  0
 18 36  1  0
 19 37  1  0
 20 38  1  0
 21 39  1  0
 22 40  1  0
 22 41  1  0
 23 42  1  0
 23 43  1  0
M  END
>  <Energy>  (1424) 
682.17292325830761

>  <compound_id>  (1424) 
12661

>  <target_id>  (1424) 
1

>  <reference_id>  (1424) 
64

>  <inspiration_ids>  (1424) 
[64, 81]

>  <energy_score>  (1424) 
610.8338856347935

>  <distance_score>  (1424) 
12.711973162063726

>  <path>  (1424) 
/opt/xchem-fragalysis-2/maxwin/BulkDock/SCRATCH/511022/C12661-P64/C12661-P64.minimised.mol

>  <scratch_subdir>  (1424) 
/opt/xchem-fragalysis-2/maxwin/BulkDock/SCRATCH/511022/C12661-P64

>  <fragmenstein_runtime>  (1424) 
50.169395446777344

>  <fragmenstein_outcome>  (1424) 
too moved

>  <fragmenstein_mode>  (1424) 
expansion

>  <fragmenstein_error>  (1424) 


$$$$
C12661-P81
     RDKit          3D

 43 45  0  0  0  0  0  0  0  0999 V2000
   -2.1981  -10.2574   21.8084 C   0  0  0  0  0  0  0  0  0  0  0  0
   -0.9806  -11.8009   21.9548 C   0  0  0  0  0  0  0  0  0  0  0  0
   -0.0572  -10.1216   21.1568 C   0  0  0  0  0  0  0  0  0  0  0  0
    1.4832   -9.2904   20.4727 N   0  0  0  0  0  0  0  0  0  0  0  0
    1.9343   -8.6116   18.7066 C   0  0  0  0  0  0  0  0  0  0  0  0
    1.0853   -8.6201   17.8553 O   0  0  0  0  0  0  0  0  0  0  0  0
    3.6457   -7.8720   17.9400 C   0  0  0  0  0  0  0  0  0  0  0  0
    4.4130   -6.5451   16.7506 C   0  0  0  0  0  0  0  0  0  0  0  0
    5.5926   -5.9174   16.7029 N   0  0  0  0  0  0  0  0  0  0  0  0
    5.9318   -6.1716   17.8946 N   0  0  0  0  0  0  0  0  0  0  0  0
    4.9126   -6.9149   18.5029 C   0  0  0  0  0  0  0  0  0  0  0  0
   -0.7719  -13.6532   23.1967 N   0  0  0  0  0  0  0  0  0  0  0  0
   -2.1601  -15.0513   23.8668 C   0  0  0  0  0  0  0  0  0  0  0  0
   -3.2497  -14.8277   23.3826 O   0  0  0  0  0  0  0  0  0  0  0  0
   -2.3823  -16.4163   25.0750 C   0  0  0  0  0  0  0  0  0  0  0  0
   -2.3903  -16.8242   26.9003 C   0  0  0  0  0  0  0  0  0  0  0  0
   -2.2611  -16.0428   27.9599 N   0  0  0  0  0  0  0  0  0  0  0  0
   -2.3903  -16.8653   29.0595 C   0  0  0  0  0  0  0  0  0  0  0  0
   -2.5201  -18.1763   28.6852 C   0  0  0  0  0  0  0  0  0  0  0  0
   -2.3986  -18.1526   27.3265 N   0  0  0  0  0  0  0  0  0  0  0  0
   -1.9168  -12.2342   20.3794 C   0  0  0  0  0  0  0  0  0  0  0  0
   -3.1340  -11.4788   19.7729 C   0  0  0  0  0  0  0  0  0  0  0  0
   -1.9450  -11.6542   18.9388 C   0  0  0  0  0  0  0  0  0  0  0  0
   -3.2621  -10.4565   21.8867 H   0  0  0  0  0  0  0  0  0  0  0  0
   -2.2370   -9.7168   20.8693 H   0  0  0  0  0  0  0  0  0  0  0  0
   -1.9529   -9.4378   22.4994 H   0  0  0  0  0  0  0  0  0  0  0  0
   -0.7075   -9.4676   20.5764 H   0  0  0  0  0  0  0  0  0  0  0  0
   -0.0051   -9.5564   22.0892 H   0  0  0  0  0  0  0  0  0  0  0  0
    2.2644   -9.2967   21.0127 H   0  0  0  0  0  0  0  0  0  0  0  0
    3.8729   -6.2825   15.7981 H   0  0  0  0  0  0  0  0  0  0  0  0
    6.6004   -5.5556   18.3389 H   0  0  0  0  0  0  0  0  0  0  0  0
    4.5185   -6.0945   19.0965 H   0  0  0  0  0  0  0  0  0  0  0  0
    0.0967  -13.8176   23.6884 H   0  0  0  0  0  0  0  0  0  0  0  0
   -2.2802  -17.4740   24.9396 H   0  0  0  0  0  0  0  0  0  0  0  0
   -3.3990  -16.1274   25.0836 H   0  0  0  0  0  0  0  0  0  0  0  0
   -2.3894  -16.4572   30.0616 H   0  0  0  0  0  0  0  0  0  0  0  0
   -2.6705  -19.0901   29.2410 H   0  0  0  0  0  0  0  0  0  0  0  0
   -2.6073  -18.9229   26.7075 H   0  0  0  0  0  0  0  0  0  0  0  0
   -2.0316  -13.3043   20.4053 H   0  0  0  0  0  0  0  0  0  0  0  0
   -4.0627  -11.9776   19.5907 H   0  0  0  0  0  0  0  0  0  0  0  0
   -3.3954  -10.4381   19.7989 H   0  0  0  0  0  0  0  0  0  0  0  0
   -1.6209  -10.6828   18.6004 H   0  0  0  0  0  0  0  0  0  0  0  0
   -2.0172  -12.3496   18.1074 H   0  0  0  0  0  0  0  0  0  0  0  0
  1  2  1  0
  2  3  1  0
  3  4  1  0
  4  5  1  0
  5  6  2  0
  5  7  1  0
  7  8  1  0
  8  9  2  0
  9 10  1  0
 10 11  1  0
  2 12  1  0
 12 13  1  0
 13 14  2  0
 13 15  1  0
 15 16  1  0
 16 17  2  0
 17 18  1  0
 18 19  2  0
 19 20  1  0
  2 21  1  0
 21 22  1  0
 22 23  1  0
 11  7  2  0
 20 16  1  0
 23 21  1  0
  1 24  1  0
  1 25  1  0
  1 26  1  0
  3 27  1  0
  3 28  1  0
  4 29  1  0
  8 30  1  0
 10 31  1  0
 11 32  1  0
 12 33  1  0
 15 34  1  0
 15 35  1  0
 18 36  1  0
 19 37  1  0
 20 38  1  0
 21 39  1  0
 22 40  1  0
 22 41  1  0
 23 42  1  0
 23 43  1  0
M  END
>  <Energy>  (1425) 
1387.1698663655404

>  <compound_id>  (1425) 
12661

>  <target_id>  (1425) 
1

>  <reference_id>  (1425) 
81

>  <inspiration_ids>  (1425) 
[64, 81]

>  <energy_score>  (1425) 
1315.8308287420682

>  <distance_score>  (1425) 
10.829845399450802

>  <path>  (1425) 
/opt/xchem-fragalysis-2/maxwin/BulkDock/SCRATCH/511022/C12661-P81/C12661-P81.minimised.mol

>  <scratch_subdir>  (1425) 
/opt/xchem-fragalysis-2/maxwin/BulkDock/SCRATCH/511022/C12661-P81

>  <fragmenstein_runtime>  (1425) 
39.55434846878052

>  <fragmenstein_outcome>  (1425) 
too moved

>  <fragmenstein_mode>  (1425) 
expansion

>  <fragmenstein_error>  (1425) 


$$$$
C10596-P64
     RDKit          3D

 43 45  0  0  0  0  0  0  0  0999 V2000
   -0.1927  -16.3728   21.4041 C   0  0  0  0  0  0  0  0  0  0  0  0
   -0.7172  -17.0350   20.3250 C   0  0  0  0  0  0  0  0  0  0  0  0
    0.8618  -16.3227   19.4378 C   0  0  0  0  0  0  0  0  0  0  0  0
    2.2681  -15.1860   18.4817 N   0  0  0  0  0  0  0  0  0  0  0  0
    3.4096  -13.9540   19.0951 C   0  0  0  0  0  0  0  0  0  0  0  0
    3.4829  -13.4737   20.2959 O   0  0  0  0  0  0  0  0  0  0  0  0
    4.6218  -13.3696   18.2124 C   0  0  0  0  0  0  0  0  0  0  0  0
    4.8257  -12.0827   17.4796 C   0  0  0  0  0  0  0  0  0  0  0  0
    6.1559  -11.7095   17.5751 C   0  0  0  0  0  0  0  0  0  0  0  0
    6.7002  -12.6869   18.3351 N   0  0  0  0  0  0  0  0  0  0  0  0
    5.9077  -13.7694   18.4903 N   0  0  0  0  0  0  0  0  0  0  0  0
   -1.6730  -18.3173   21.0088 N   0  0  0  0  0  0  0  0  0  0  0  0
   -1.5222  -19.2704   22.6133 C   0  0  0  0  0  0  0  0  0  0  0  0
   -0.5967  -19.1337   23.3858 O   0  0  0  0  0  0  0  0  0  0  0  0
   -2.8278  -20.6251   23.3463 C   0  0  0  0  0  0  0  0  0  0  0  0
   -4.4976  -21.1462   24.4404 C   0  0  0  0  0  0  0  0  0  0  0  0
   -4.8736  -21.0967   25.7796 N   0  0  0  0  0  0  0  0  0  0  0  0
   -5.6618  -22.5215   26.4672 C   0  0  0  0  0  0  0  0  0  0  0  0
   -6.0329  -23.2886   25.3616 C   0  0  0  0  0  0  0  0  0  0  0  0
   -5.4364  -22.7036   24.1524 N   0  0  0  0  0  0  0  0  0  0  0  0
   -2.0465  -16.6491   19.4971 C   0  0  0  0  0  0  0  0  0  0  0  0
   -3.4319  -17.1824   18.9480 C   0  0  0  0  0  0  0  0  0  0  0  0
   -2.3020  -17.9996   18.6949 C   0  0  0  0  0  0  0  0  0  0  0  0
   -0.0142  -17.3343   21.7809 H   0  0  0  0  0  0  0  0  0  0  0  0
   -0.6156  -15.5625   21.9664 H   0  0  0  0  0  0  0  0  0  0  0  0
    0.6812  -15.8332   21.2046 H   0  0  0  0  0  0  0  0  0  0  0  0
    0.9683  -17.2483   18.7786 H   0  0  0  0  0  0  0  0  0  0  0  0
    0.0407  -15.6774   19.3258 H   0  0  0  0  0  0  0  0  0  0  0  0
    2.5106  -15.4164   17.5269 H   0  0  0  0  0  0  0  0  0  0  0  0
    4.0473  -11.4722   17.0360 H   0  0  0  0  0  0  0  0  0  0  0  0
    6.6904  -10.8268   17.2604 H   0  0  0  0  0  0  0  0  0  0  0  0
    7.6440  -12.7425   18.6995 H   0  0  0  0  0  0  0  0  0  0  0  0
   -2.4547  -18.6466   20.5006 H   0  0  0  0  0  0  0  0  0  0  0  0
   -2.0500  -21.3899   23.3472 H   0  0  0  0  0  0  0  0  0  0  0  0
   -2.4748  -20.3034   24.2715 H   0  0  0  0  0  0  0  0  0  0  0  0
   -5.9851  -22.4368   27.4834 H   0  0  0  0  0  0  0  0  0  0  0  0
   -6.8457  -23.8794   25.0177 H   0  0  0  0  0  0  0  0  0  0  0  0
   -5.7546  -22.9838   23.2300 H   0  0  0  0  0  0  0  0  0  0  0  0
   -1.9027  -15.6621   19.0888 H   0  0  0  0  0  0  0  0  0  0  0  0
   -3.9330  -16.8201   18.0504 H   0  0  0  0  0  0  0  0  0  0  0  0
   -4.2050  -17.6494   19.5421 H   0  0  0  0  0  0  0  0  0  0  0  0
   -1.4231  -18.1265   18.0959 H   0  0  0  0  0  0  0  0  0  0  0  0
   -2.6559  -18.9941   18.9174 H   0  0  0  0  0  0  0  0  0  0  0  0
  1  2  1  0
  2  3  1  0
  3  4  1  0
  4  5  1  0
  5  6  2  0
  5  7  1  0
  7  8  1  0
  8  9  2  0
  9 10  1  0
 10 11  1  0
  2 12  1  0
 12 13  1  0
 13 14  2  0
 13 15  1  0
 15 16  1  0
 16 17  2  0
 17 18  1  0
 18 19  2  0
 19 20  1  0
  2 21  1  0
 21 22  1  0
 22 23  1  0
 11  7  2  0
 20 16  1  0
 23 21  1  0
  1 24  1  0
  1 25  1  0
  1 26  1  0
  3 27  1  0
  3 28  1  0
  4 29  1  0
  8 30  1  0
  9 31  1  0
 10 32  1  0
 12 33  1  0
 15 34  1  0
 15 35  1  0
 18 36  1  0
 19 37  1  0
 20 38  1  0
 21 39  1  0
 22 40  1  0
 22 41  1  0
 23 42  1  0
 23 43  1  0
M  END
>  <Energy>  (1426) 
1006.8437442729968

>  <compound_id>  (1426) 
10596

>  <target_id>  (1426) 
1

>  <reference_id>  (1426) 
64

>  <inspiration_ids>  (1426) 
[64, 81]

>  <energy_score>  (1426) 
904.0887395855841

>  <distance_score>  (1426) 
10.859730985695055

>  <path>  (1426) 
/opt/xchem-fragalysis-2/maxwin/BulkDock/SCRATCH/511022/C10596-P64/C10596-P64.minimised.mol

>  <scratch_subdir>  (1426) 
/opt/xchem-fragalysis-2/maxwin/BulkDock/SCRATCH/511022/C10596-P64

>  <fragmenstein_runtime>  (1426) 
22.119762897491455

>  <fragmenstein_outcome>  (1426) 
too moved

>  <fragmenstein_mode>  (1426) 
expansion

>  <fragmenstein_error>  (1426) 


$$$$
C10596-P81
     RDKit          3D

 43 45  0  0  0  0  0  0  0  0999 V2000
   -1.6044  -15.6866   19.4304 C   0  0  0  0  0  0  0  0  0  0  0  0
    0.0656  -16.1880   19.8813 C   0  0  0  0  0  0  0  0  0  0  0  0
    1.6175  -15.3084   18.5068 C   0  0  0  0  0  0  0  0  0  0  0  0
    3.3251  -14.9216   18.4289 N   0  0  0  0  0  0  0  0  0  0  0  0
    4.0251  -13.6280   18.3178 C   0  0  0  0  0  0  0  0  0  0  0  0
    3.5973  -12.5338   18.1720 O   0  0  0  0  0  0  0  0  0  0  0  0
    5.6094  -13.6353   18.4536 C   0  0  0  0  0  0  0  0  0  0  0  0
    6.5607  -14.6974   18.3014 C   0  0  0  0  0  0  0  0  0  0  0  0
    7.8047  -14.1033   18.2043 C   0  0  0  0  0  0  0  0  0  0  0  0
    7.5882  -12.7685   18.3170 N   0  0  0  0  0  0  0  0  0  0  0  0
    6.3002  -12.4605   18.4085 N   0  0  0  0  0  0  0  0  0  0  0  0
   -1.2893  -17.5521   20.7330 N   0  0  0  0  0  0  0  0  0  0  0  0
   -1.0574  -18.8955   22.1136 C   0  0  0  0  0  0  0  0  0  0  0  0
   -0.0352  -19.0163   22.7142 O   0  0  0  0  0  0  0  0  0  0  0  0
   -2.2515  -20.3128   22.6452 C   0  0  0  0  0  0  0  0  0  0  0  0
   -3.5870  -20.4820   23.9515 C   0  0  0  0  0  0  0  0  0  0  0  0
   -4.5176  -19.6578   24.4051 N   0  0  0  0  0  0  0  0  0  0  0  0
   -5.0292  -20.0834   25.6131 C   0  0  0  0  0  0  0  0  0  0  0  0
   -4.9374  -21.3770   25.6653 C   0  0  0  0  0  0  0  0  0  0  0  0
   -4.7429  -21.4015   24.3355 N   0  0  0  0  0  0  0  0  0  0  0  0
    0.5650  -17.1647   20.5716 C   0  0  0  0  0  0  0  0  0  0  0  0
    0.2135  -18.0004   19.3415 C   0  0  0  0  0  0  0  0  0  0  0  0
    0.7769  -18.5962   20.7648 C   0  0  0  0  0  0  0  0  0  0  0  0
   -2.2344  -16.4941   19.0660 H   0  0  0  0  0  0  0  0  0  0  0  0
   -1.6235  -14.9510   18.6309 H   0  0  0  0  0  0  0  0  0  0  0  0
   -2.1232  -15.2545   20.2805 H   0  0  0  0  0  0  0  0  0  0  0  0
    2.3556  -15.9673   17.7623 H   0  0  0  0  0  0  0  0  0  0  0  0
    1.3232  -14.3944   17.8761 H   0  0  0  0  0  0  0  0  0  0  0  0
    3.9923  -15.6374   18.6286 H   0  0  0  0  0  0  0  0  0  0  0  0
    6.3464  -15.7524   18.2339 H   0  0  0  0  0  0  0  0  0  0  0  0
    8.7961  -14.5127   18.0772 H   0  0  0  0  0  0  0  0  0  0  0  0
    8.2611  -12.0093   18.3033 H   0  0  0  0  0  0  0  0  0  0  0  0
   -2.2425  -17.5643   20.4118 H   0  0  0  0  0  0  0  0  0  0  0  0
   -1.4975  -21.0163   23.0224 H   0  0  0  0  0  0  0  0  0  0  0  0
   -2.5885  -20.7271   21.7234 H   0  0  0  0  0  0  0  0  0  0  0  0
   -5.5207  -19.5687   26.4093 H   0  0  0  0  0  0  0  0  0  0  0  0
   -5.3107  -22.1510   26.3608 H   0  0  0  0  0  0  0  0  0  0  0  0
   -5.2159  -22.1265   23.7903 H   0  0  0  0  0  0  0  0  0  0  0  0
    0.1160  -16.6797   21.4153 H   0  0  0  0  0  0  0  0  0  0  0  0
    0.8393  -18.0175   18.4199 H   0  0  0  0  0  0  0  0  0  0  0  0
   -0.7858  -18.2346   18.9259 H   0  0  0  0  0  0  0  0  0  0  0  0
    1.8766  -18.8358   21.1213 H   0  0  0  0  0  0  0  0  0  0  0  0
    1.6323  -19.4215   20.6344 H   0  0  0  0  0  0  0  0  0  0  0  0
  1  2  1  0
  2  3  1  0
  3  4  1  0
  4  5  1  0
  5  6  2  0
  5  7  1  0
  7  8  1  0
  8  9  2  0
  9 10  1  0
 10 11  1  0
  2 12  1  0
 12 13  1  0
 13 14  2  0
 13 15  1  0
 15 16  1  0
 16 17  2  0
 17 18  1  0
 18 19  2  0
 19 20  1  0
  2 21  1  0
 21 22  1  0
 22 23  1  0
 11  7  2  0
 20 16  1  0
 23 21  1  0
  1 24  1  0
  1 25  1  0
  1 26  1  0
  3 27  1  0
  3 28  1  0
  4 29  1  0
  8 30  1  0
  9 31  1  0
 10 32  1  0
 12 33  1  0
 15 34  1  0
 15 35  1  0
 18 36  1  0
 19 37  1  0
 20 38  1  0
 21 39  1  0
 22 40  1  0
 22 41  1  0
 23 42  1  0
 23 43  1  0
M  END
>  <Energy>  (1427) 
1169.4024082692786

>  <compound_id>  (1427) 
10596

>  <target_id>  (1427) 
1

>  <reference_id>  (1427) 
81

>  <inspiration_ids>  (1427) 
[64, 81]

>  <energy_score>  (1427) 
1066.6474035818815

>  <distance_score>  (1427) 
11.364275409099427

>  <path>  (1427) 
/opt/xchem-fragalysis-2/maxwin/BulkDock/SCRATCH/511022/C10596-P81/C10596-P81.minimised.mol

>  <scratch_subdir>  (1427) 
/opt/xchem-fragalysis-2/maxwin/BulkDock/SCRATCH/511022/C10596-P81

>  <fragmenstein_runtime>  (1427) 
35.73309540748596

>  <fragmenstein_outcome>  (1427) 
too moved

>  <fragmenstein_mode>  (1427) 
expansion

>  <fragmenstein_error>  (1427) 


$$$$
C12662-P64
     RDKit          3D

 42 43  0  0  0  0  0  0  0  0999 V2000
   -1.1116  -16.8486   20.2241 C   0  0  0  0  0  0  0  0  0  0  0  0
   -2.1136  -16.0690   19.3109 C   0  0  0  0  0  0  0  0  0  0  0  0
   -1.5321  -14.5340   18.2520 C   0  0  0  0  0  0  0  0  0  0  0  0
    0.0353  -13.4274   17.8710 N   0  0  0  0  0  0  0  0  0  0  0  0
    1.8445  -13.7659   17.9974 C   0  0  0  0  0  0  0  0  0  0  0  0
    2.4314  -14.8005   18.2663 O   0  0  0  0  0  0  0  0  0  0  0  0
    3.0636  -11.9939   17.7789 C   0  0  0  0  0  0  0  0  0  0  0  0
    2.5838   -9.9829   17.9377 C   0  0  0  0  0  0  0  0  0  0  0  0
    3.0272   -8.3624   17.5211 C   0  0  0  0  0  0  0  0  0  0  0  0
    4.4711   -7.1784   17.8617 C   0  0  0  0  0  0  0  0  0  0  0  0
    4.8594   -6.3169   16.8383 N   0  0  0  0  0  0  0  0  0  0  0  0
    3.9327   -6.5392   15.7109 N   0  0  0  0  0  0  0  0  0  0  0  0
    2.9412   -7.9516   16.0625 C   0  0  0  0  0  0  0  0  0  0  0  0
   -3.4798  -17.2149   18.7446 C   0  0  0  0  0  0  0  0  0  0  0  0
   -4.5871  -17.9618   19.3684 N   0  0  0  0  0  0  0  0  0  0  0  0
   -5.1190  -19.2773   19.0878 C   0  0  0  0  0  0  0  0  0  0  0  0
   -4.7439  -20.1241   18.3301 O   0  0  0  0  0  0  0  0  0  0  0  0
   -6.3011  -19.6198   19.9120 C   0  0  0  0  0  0  0  0  0  0  0  0
   -7.1584  -18.9298   20.7581 C   0  0  0  0  0  0  0  0  0  0  0  0
   -8.1184  -19.7463   21.3231 N   0  0  0  0  0  0  0  0  0  0  0  0
   -7.8422  -20.9481   20.8751 C   0  0  0  0  0  0  0  0  0  0  0  0
   -6.7713  -20.9231   20.0274 N   0  0  0  0  0  0  0  0  0  0  0  0
   -0.5663  -16.3458   21.0032 H   0  0  0  0  0  0  0  0  0  0  0  0
   -0.2409  -17.2851   19.7502 H   0  0  0  0  0  0  0  0  0  0  0  0
   -1.6549  -17.7014   20.6215 H   0  0  0  0  0  0  0  0  0  0  0  0
   -1.7234  -16.7044   18.6017 H   0  0  0  0  0  0  0  0  0  0  0  0
   -2.0668  -13.6198   18.4978 H   0  0  0  0  0  0  0  0  0  0  0  0
   -2.0243  -14.6295   17.2446 H   0  0  0  0  0  0  0  0  0  0  0  0
   -0.1315  -12.4726   17.7145 H   0  0  0  0  0  0  0  0  0  0  0  0
    3.9017  -12.4034   18.3611 H   0  0  0  0  0  0  0  0  0  0  0  0
    3.4765  -11.7638   16.7834 H   0  0  0  0  0  0  0  0  0  0  0  0
    1.5880   -9.7187   17.6446 H   0  0  0  0  0  0  0  0  0  0  0  0
    2.2840   -9.6752   18.9400 H   0  0  0  0  0  0  0  0  0  0  0  0
    5.2129   -7.4052   18.6037 H   0  0  0  0  0  0  0  0  0  0  0  0
    4.0891   -6.1597   14.7810 H   0  0  0  0  0  0  0  0  0  0  0  0
    2.8609   -8.4833   15.1622 H   0  0  0  0  0  0  0  0  0  0  0  0
   -3.9588  -16.7630   17.8676 H   0  0  0  0  0  0  0  0  0  0  0  0
   -2.9200  -18.0965   18.3831 H   0  0  0  0  0  0  0  0  0  0  0  0
   -5.2071  -17.4871   20.0062 H   0  0  0  0  0  0  0  0  0  0  0  0
   -7.1417  -17.8784   21.0035 H   0  0  0  0  0  0  0  0  0  0  0  0
   -8.3721  -21.8613   21.1185 H   0  0  0  0  0  0  0  0  0  0  0  0
   -6.3536  -21.7170   19.5622 H   0  0  0  0  0  0  0  0  0  0  0  0
  1  2  1  0
  2  3  1  0
  3  4  1  0
  4  5  1  0
  5  6  2  0
  5  7  1  0
  7  8  1  0
  8  9  1  0
  9 10  1  0
 10 11  2  0
 11 12  1  0
 12 13  1  0
  2 14  1  0
 14 15  1  0
 15 16  1  0
 16 17  2  0
 16 18  1  0
 18 19  2  0
 19 20  1  0
 20 21  2  0
 21 22  1  0
 13  9  2  0
 22 18  1  0
  1 23  1  0
  1 24  1  0
  1 25  1  0
  2 26  1  0
  3 27  1  0
  3 28  1  0
  4 29  1  0
  7 30  1  0
  7 31  1  0
  8 32  1  0
  8 33  1  0
 10 34  1  0
 12 35  1  0
 13 36  1  0
 14 37  1  0
 14 38  1  0
 15 39  1  0
 19 40  1  0
 21 41  1  0
 22 42  1  0
M  END
>  <Energy>  (1428) 
618.76590599837436

>  <compound_id>  (1428) 
12662

>  <target_id>  (1428) 
1

>  <reference_id>  (1428) 
64

>  <inspiration_ids>  (1428) 
[64, 81]

>  <energy_score>  (1428) 
647.8494210369801

>  <distance_score>  (1428) 
10.661637574908289

>  <path>  (1428) 
/opt/xchem-fragalysis-2/maxwin/BulkDock/SCRATCH/511022/C12662-P64/C12662-P64.minimised.mol

>  <scratch_subdir>  (1428) 
/opt/xchem-fragalysis-2/maxwin/BulkDock/SCRATCH/511022/C12662-P64

>  <fragmenstein_runtime>  (1428) 
34.27217078208923

>  <fragmenstein_outcome>  (1428) 
too moved

>  <fragmenstein_mode>  (1428) 
expansion

>  <fragmenstein_error>  (1428) 


$$$$
C12662-P81
     RDKit          3D

 42 43  0  0  0  0  0  0  0  0999 V2000
    0.0476  -16.4379   20.2038 C   0  0  0  0  0  0  0  0  0  0  0  0
    0.1510  -16.0773   21.6625 C   0  0  0  0  0  0  0  0  0  0  0  0
    1.3105  -14.7990   23.0019 C   0  0  0  0  0  0  0  0  0  0  0  0
    2.9261  -14.1623   22.0059 N   0  0  0  0  0  0  0  0  0  0  0  0
    3.6108  -12.5761   21.8704 C   0  0  0  0  0  0  0  0  0  0  0  0
    3.2793  -11.5799   22.4652 O   0  0  0  0  0  0  0  0  0  0  0  0
    5.0070  -12.4998   20.4091 C   0  0  0  0  0  0  0  0  0  0  0  0
    6.5239  -11.5488   19.6677 C   0  0  0  0  0  0  0  0  0  0  0  0
    7.5427  -10.5542   18.3347 C   0  0  0  0  0  0  0  0  0  0  0  0
    8.3492  -10.9138   16.7854 C   0  0  0  0  0  0  0  0  0  0  0  0
    9.6028  -11.3535   16.7402 N   0  0  0  0  0  0  0  0  0  0  0  0
    9.8461  -10.9198   17.9314 N   0  0  0  0  0  0  0  0  0  0  0  0
    8.7647  -10.0078   18.2909 C   0  0  0  0  0  0  0  0  0  0  0  0
   -0.4045  -18.0042   21.6226 C   0  0  0  0  0  0  0  0  0  0  0  0
   -0.6214  -19.4788   22.7118 N   0  0  0  0  0  0  0  0  0  0  0  0
   -1.6678  -20.7756   22.5932 C   0  0  0  0  0  0  0  0  0  0  0  0
   -2.5645  -20.9722   21.8032 O   0  0  0  0  0  0  0  0  0  0  0  0
   -1.6542  -21.8430   23.6066 C   0  0  0  0  0  0  0  0  0  0  0  0
   -2.7916  -22.4393   24.1591 C   0  0  0  0  0  0  0  0  0  0  0  0
   -2.4785  -23.4215   25.0613 N   0  0  0  0  0  0  0  0  0  0  0  0
   -1.1701  -23.4937   25.0087 C   0  0  0  0  0  0  0  0  0  0  0  0
   -0.6370  -22.5858   24.1320 N   0  0  0  0  0  0  0  0  0  0  0  0
    0.8738  -16.0193   19.7415 H   0  0  0  0  0  0  0  0  0  0  0  0
    0.0828  -17.4337   19.7603 H   0  0  0  0  0  0  0  0  0  0  0  0
   -0.9870  -16.1717   19.8864 H   0  0  0  0  0  0  0  0  0  0  0  0
   -0.7277  -15.5059   21.8294 H   0  0  0  0  0  0  0  0  0  0  0  0
    0.8393  -14.1576   23.8229 H   0  0  0  0  0  0  0  0  0  0  0  0
    0.2125  -14.2258   22.6407 H   0  0  0  0  0  0  0  0  0  0  0  0
    3.3106  -14.7149   21.3822 H   0  0  0  0  0  0  0  0  0  0  0  0
    5.5443  -13.3984   20.5045 H   0  0  0  0  0  0  0  0  0  0  0  0
    4.4142  -12.7560   19.5248 H   0  0  0  0  0  0  0  0  0  0  0  0
    6.4500  -10.7753   20.3423 H   0  0  0  0  0  0  0  0  0  0  0  0
    5.8631  -11.4921   18.8392 H   0  0  0  0  0  0  0  0  0  0  0  0
    8.1539  -10.3888   15.8607 H   0  0  0  0  0  0  0  0  0  0  0  0
   10.7951  -10.9755   18.2992 H   0  0  0  0  0  0  0  0  0  0  0  0
    8.9644   -9.1518   18.9155 H   0  0  0  0  0  0  0  0  0  0  0  0
   -1.3417  -17.9143   21.0577 H   0  0  0  0  0  0  0  0  0  0  0  0
    0.4438  -18.4198   21.0897 H   0  0  0  0  0  0  0  0  0  0  0  0
    0.0730  -19.6658   23.4315 H   0  0  0  0  0  0  0  0  0  0  0  0
   -3.8224  -22.1889   23.9380 H   0  0  0  0  0  0  0  0  0  0  0  0
   -0.5486  -24.1732   25.5751 H   0  0  0  0  0  0  0  0  0  0  0  0
    0.3454  -22.4088   23.9506 H   0  0  0  0  0  0  0  0  0  0  0  0
  1  2  1  0
  2  3  1  0
  3  4  1  0
  4  5  1  0
  5  6  2  0
  5  7  1  0
  7  8  1  0
  8  9  1  0
  9 10  1  0
 10 11  2  0
 11 12  1  0
 12 13  1  0
  2 14  1  0
 14 15  1  0
 15 16  1  0
 16 17  2  0
 16 18  1  0
 18 19  2  0
 19 20  1  0
 20 21  2  0
 21 22  1  0
 13  9  2  0
 22 18  1  0
  1 23  1  0
  1 24  1  0
  1 25  1  0
  2 26  1  0
  3 27  1  0
  3 28  1  0
  4 29  1  0
  7 30  1  0
  7 31  1  0
  8 32  1  0
  8 33  1  0
 10 34  1  0
 12 35  1  0
 13 36  1  0
 14 37  1  0
 14 38  1  0
 15 39  1  0
 19 40  1  0
 21 41  1  0
 22 42  1  0
M  END
>  <Energy>  (1429) 
859.56118817688832

>  <compound_id>  (1429) 
12662

>  <target_id>  (1429) 
1

>  <reference_id>  (1429) 
81

>  <inspiration_ids>  (1429) 
[64, 81]

>  <energy_score>  (1429) 
888.6447032154963

>  <distance_score>  (1429) 
10.730329356926209

>  <path>  (1429) 
/opt/xchem-fragalysis-2/maxwin/BulkDock/SCRATCH/511022/C12662-P81/C12662-P81.minimised.mol

>  <scratch_subdir>  (1429) 
/opt/xchem-fragalysis-2/maxwin/BulkDock/SCRATCH/511022/C12662-P81

>  <fragmenstein_runtime>  (1429) 
32.31736350059509

>  <fragmenstein_outcome>  (1429) 
too moved

>  <fragmenstein_mode>  (1429) 
expansion

>  <fragmenstein_error>  (1429) 


$$$$
C12663-P64
     RDKit          3D

 42 43  0  0  0  0  0  0  0  0999 V2000
    2.5955  -20.6950   15.8895 C   0  0  0  0  0  0  0  0  0  0  0  0
    2.0046  -20.0597   14.6370 C   0  0  0  0  0  0  0  0  0  0  0  0
    2.4940  -18.5831   14.4565 C   0  0  0  0  0  0  0  0  0  0  0  0
    3.7015  -18.3709   13.6136 N   0  0  0  0  0  0  0  0  0  0  0  0
    5.0350  -17.9027   13.9582 C   0  0  0  0  0  0  0  0  0  0  0  0
    5.5227  -17.6447   15.0243 O   0  0  0  0  0  0  0  0  0  0  0  0
    5.9154  -17.6167   12.7110 C   0  0  0  0  0  0  0  0  0  0  0  0
    5.9148  -16.1622   12.1790 C   0  0  0  0  0  0  0  0  0  0  0  0
    6.9258  -15.1365   12.6848 C   0  0  0  0  0  0  0  0  0  0  0  0
    8.1792  -15.3041   13.3290 C   0  0  0  0  0  0  0  0  0  0  0  0
    8.8177  -14.1563   13.5782 N   0  0  0  0  0  0  0  0  0  0  0  0
    7.9742  -13.2200   13.1162 N   0  0  0  0  0  0  0  0  0  0  0  0
    6.8584  -13.7588   12.5325 C   0  0  0  0  0  0  0  0  0  0  0  0
    0.4442  -20.2472   14.5430 C   0  0  0  0  0  0  0  0  0  0  0  0
   -0.4055  -20.5397   15.7082 N   0  0  0  0  0  0  0  0  0  0  0  0
   -0.7234  -21.7878   16.3576 C   0  0  0  0  0  0  0  0  0  0  0  0
   -0.3130  -22.8945   16.1624 O   0  0  0  0  0  0  0  0  0  0  0  0
   -1.8095  -21.6885   17.3648 C   0  0  0  0  0  0  0  0  0  0  0  0
   -2.7873  -20.7515   17.6923 C   0  0  0  0  0  0  0  0  0  0  0  0
   -3.6278  -21.1833   18.7057 N   0  0  0  0  0  0  0  0  0  0  0  0
   -3.1796  -22.3737   18.9977 C   0  0  0  0  0  0  0  0  0  0  0  0
   -3.7606  -23.4489   20.1692 Cl  0  0  0  0  0  0  0  0  0  0  0  0
   -2.1124  -22.7332   18.2383 N   0  0  0  0  0  0  0  0  0  0  0  0
    3.6881  -20.6355   15.8710 H   0  0  0  0  0  0  0  0  0  0  0  0
    2.2391  -20.1956   16.7959 H   0  0  0  0  0  0  0  0  0  0  0  0
    2.3280  -21.7544   15.9535 H   0  0  0  0  0  0  0  0  0  0  0  0
    2.4122  -20.6079   13.7754 H   0  0  0  0  0  0  0  0  0  0  0  0
    1.7151  -18.0003   13.9544 H   0  0  0  0  0  0  0  0  0  0  0  0
    2.6751  -18.1156   15.4266 H   0  0  0  0  0  0  0  0  0  0  0  0
    3.6126  -18.4040   12.6048 H   0  0  0  0  0  0  0  0  0  0  0  0
    6.9347  -17.9492   12.9401 H   0  0  0  0  0  0  0  0  0  0  0  0
    5.5662  -18.2763   11.9062 H   0  0  0  0  0  0  0  0  0  0  0  0
    6.0993  -16.2273   11.0969 H   0  0  0  0  0  0  0  0  0  0  0  0
    4.9096  -15.7423   12.2795 H   0  0  0  0  0  0  0  0  0  0  0  0
    8.6586  -16.2293   13.6233 H   0  0  0  0  0  0  0  0  0  0  0  0
    8.1669  -12.2403   13.3157 H   0  0  0  0  0  0  0  0  0  0  0  0
    6.1160  -13.1105   12.0915 H   0  0  0  0  0  0  0  0  0  0  0  0
   -0.0103  -19.3866   14.0406 H   0  0  0  0  0  0  0  0  0  0  0  0
    0.2811  -21.1045   13.8765 H   0  0  0  0  0  0  0  0  0  0  0  0
   -1.0057  -19.8137   16.0774 H   0  0  0  0  0  0  0  0  0  0  0  0
   -2.9458  -19.7810   17.2388 H   0  0  0  0  0  0  0  0  0  0  0  0
   -1.6125  -23.6095   18.2791 H   0  0  0  0  0  0  0  0  0  0  0  0
  1  2  1  0
  2  3  1  0
  3  4  1  0
  4  5  1  0
  5  6  2  0
  5  7  1  0
  7  8  1  0
  8  9  1  0
  9 10  1  0
 10 11  2  0
 11 12  1  0
 12 13  1  0
  2 14  1  0
 14 15  1  0
 15 16  1  0
 16 17  2  0
 16 18  1  0
 18 19  2  0
 19 20  1  0
 20 21  2  0
 21 22  1  0
 21 23  1  0
 13  9  2  0
 23 18  1  0
  1 24  1  0
  1 25  1  0
  1 26  1  0
  2 27  1  0
  3 28  1  0
  3 29  1  0
  4 30  1  0
  7 31  1  0
  7 32  1  0
  8 33  1  0
  8 34  1  0
 10 35  1  0
 12 36  1  0
 13 37  1  0
 14 38  1  0
 14 39  1  0
 15 40  1  0
 19 41  1  0
 23 42  1  0
M  END
>  <Energy>  (1430) 
-26.464581674931665

>  <compound_id>  (1430) 
12663

>  <target_id>  (1430) 
1

>  <reference_id>  (1430) 
64

>  <inspiration_ids>  (1430) 
[64, 81]

>  <energy_score>  (1430) 
-4.532082022849181

>  <distance_score>  (1430) 
14.174316772706877

>  <path>  (1430) 
/opt/xchem-fragalysis-2/maxwin/BulkDock/SCRATCH/511022/C12663-P64/C12663-P64.minimised.mol

>  <scratch_subdir>  (1430) 
/opt/xchem-fragalysis-2/maxwin/BulkDock/SCRATCH/511022/C12663-P64

>  <fragmenstein_runtime>  (1430) 
58.31978392601013

>  <fragmenstein_outcome>  (1430) 
too moved

>  <fragmenstein_mode>  (1430) 
expansion

>  <fragmenstein_error>  (1430) 


$$$$
C12663-P81
     RDKit          3D

 42 43  0  0  0  0  0  0  0  0999 V2000
   -2.1896  -14.0441   25.3584 C   0  0  0  0  0  0  0  0  0  0  0  0
   -2.2721  -15.2046   24.3042 C   0  0  0  0  0  0  0  0  0  0  0  0
   -1.2858  -14.7082   22.5516 C   0  0  0  0  0  0  0  0  0  0  0  0
   -1.9217  -14.0468   20.8236 N   0  0  0  0  0  0  0  0  0  0  0  0
   -2.0784  -12.4094   20.2342 C   0  0  0  0  0  0  0  0  0  0  0  0
   -1.8973  -11.3639   20.8396 O   0  0  0  0  0  0  0  0  0  0  0  0
   -2.3715  -12.1004   18.6970 C   0  0  0  0  0  0  0  0  0  0  0  0
   -3.4085  -10.9521   18.4792 C   0  0  0  0  0  0  0  0  0  0  0  0
   -2.8795   -9.6353   17.9230 C   0  0  0  0  0  0  0  0  0  0  0  0
   -3.2879   -8.9311   16.7541 C   0  0  0  0  0  0  0  0  0  0  0  0
   -2.5514   -7.8464   16.5023 N   0  0  0  0  0  0  0  0  0  0  0  0
   -1.8287   -7.7178   17.6192 N   0  0  0  0  0  0  0  0  0  0  0  0
   -1.9575   -8.7732   18.4688 C   0  0  0  0  0  0  0  0  0  0  0  0
   -2.9240  -16.4503   25.6171 C   0  0  0  0  0  0  0  0  0  0  0  0
   -3.5478  -17.7216   26.0125 N   0  0  0  0  0  0  0  0  0  0  0  0
   -4.5486  -18.0115   26.9854 C   0  0  0  0  0  0  0  0  0  0  0  0
   -5.1958  -17.2884   27.6755 O   0  0  0  0  0  0  0  0  0  0  0  0
   -4.6987  -19.4483   26.9181 C   0  0  0  0  0  0  0  0  0  0  0  0
   -4.1473  -20.4349   27.7104 C   0  0  0  0  0  0  0  0  0  0  0  0
   -4.2277  -21.6662   27.0975 N   0  0  0  0  0  0  0  0  0  0  0  0
   -4.8179  -21.4312   25.9579 C   0  0  0  0  0  0  0  0  0  0  0  0
   -4.9809  -22.4812   24.6398 Cl  0  0  0  0  0  0  0  0  0  0  0  0
   -5.1922  -20.1325   25.8219 N   0  0  0  0  0  0  0  0  0  0  0  0
   -2.2160  -14.4745   26.3460 H   0  0  0  0  0  0  0  0  0  0  0  0
   -1.2867  -13.5166   25.2568 H   0  0  0  0  0  0  0  0  0  0  0  0
   -2.8814  -13.2006   25.2536 H   0  0  0  0  0  0  0  0  0  0  0  0
   -1.2910  -15.4932   24.3928 H   0  0  0  0  0  0  0  0  0  0  0  0
   -0.5176  -13.9984   22.8899 H   0  0  0  0  0  0  0  0  0  0  0  0
   -2.3224  -14.5920   22.5026 H   0  0  0  0  0  0  0  0  0  0  0  0
   -2.0826  -14.7046   20.0601 H   0  0  0  0  0  0  0  0  0  0  0  0
   -1.4257  -11.6865   18.3622 H   0  0  0  0  0  0  0  0  0  0  0  0
   -2.4328  -12.9309   17.9961 H   0  0  0  0  0  0  0  0  0  0  0  0
   -3.9451  -10.7391   19.4120 H   0  0  0  0  0  0  0  0  0  0  0  0
   -4.1668  -11.3098   17.7723 H   0  0  0  0  0  0  0  0  0  0  0  0
   -4.0616   -9.2085   16.0477 H   0  0  0  0  0  0  0  0  0  0  0  0
   -1.3361   -6.8489   17.7684 H   0  0  0  0  0  0  0  0  0  0  0  0
   -1.4210   -8.8171   19.4056 H   0  0  0  0  0  0  0  0  0  0  0  0
   -2.1818  -17.1905   25.3307 H   0  0  0  0  0  0  0  0  0  0  0  0
   -2.8136  -16.0370   26.6234 H   0  0  0  0  0  0  0  0  0  0  0  0
   -3.1467  -18.5990   25.6775 H   0  0  0  0  0  0  0  0  0  0  0  0
   -3.6465  -20.3158   28.6643 H   0  0  0  0  0  0  0  0  0  0  0  0
   -5.5694  -19.7130   24.9814 H   0  0  0  0  0  0  0  0  0  0  0  0
  1  2  1  0
  2  3  1  0
  3  4  1  0
  4  5  1  0
  5  6  2  0
  5  7  1  0
  7  8  1  0
  8  9  1  0
  9 10  1  0
 10 11  2  0
 11 12  1  0
 12 13  1  0
  2 14  1  0
 14 15  1  0
 15 16  1  0
 16 17  2  0
 16 18  1  0
 18 19  2  0
 19 20  1  0
 20 21  2  0
 21 22  1  0
 21 23  1  0
 13  9  2  0
 23 18  1  0
  1 24  1  0
  1 25  1  0
  1 26  1  0
  2 27  1  0
  3 28  1  0
  3 29  1  0
  4 30  1  0
  7 31  1  0
  7 32  1  0
  8 33  1  0
  8 34  1  0
 10 35  1  0
 12 36  1  0
 13 37  1  0
 14 38  1  0
 14 39  1  0
 15 40  1  0
 19 41  1  0
 23 42  1  0
M  END
>  <Energy>  (1431) 
383.35334646037478

>  <compound_id>  (1431) 
12663

>  <target_id>  (1431) 
1

>  <reference_id>  (1431) 
81

>  <inspiration_ids>  (1431) 
[64, 81]

>  <energy_score>  (1431) 
405.28584611246094

>  <distance_score>  (1431) 
12.92580345628825

>  <path>  (1431) 
/opt/xchem-fragalysis-2/maxwin/BulkDock/SCRATCH/511022/C12663-P81/C12663-P81.minimised.mol

>  <scratch_subdir>  (1431) 
/opt/xchem-fragalysis-2/maxwin/BulkDock/SCRATCH/511022/C12663-P81

>  <fragmenstein_runtime>  (1431) 
39.15949463844299

>  <fragmenstein_outcome>  (1431) 
too moved

>  <fragmenstein_mode>  (1431) 
expansion

>  <fragmenstein_error>  (1431) 


$$$$
C12664-P64
     RDKit          3D

 43 44  0  0  0  0  0  0  0  0999 V2000
   -0.0583  -16.4515   20.1846 C   0  0  0  0  0  0  0  0  0  0  0  0
   -0.8436  -15.3149   19.0447 C   0  0  0  0  0  0  0  0  0  0  0  0
    0.8034  -14.3497   17.9579 C   0  0  0  0  0  0  0  0  0  0  0  0
    2.5097  -14.2317   18.6301 N   0  0  0  0  0  0  0  0  0  0  0  0
    3.7023  -13.0495   18.4083 C   0  0  0  0  0  0  0  0  0  0  0  0
    3.6682  -12.0837   17.6594 O   0  0  0  0  0  0  0  0  0  0  0  0
    5.2542  -12.9775   19.4792 C   0  0  0  0  0  0  0  0  0  0  0  0
    6.4892  -11.6047   19.7077 C   0  0  0  0  0  0  0  0  0  0  0  0
    8.4063  -11.3313   19.4958 C   0  0  0  0  0  0  0  0  0  0  0  0
    9.5486  -12.1841   20.0630 C   0  0  0  0  0  0  0  0  0  0  0  0
   10.7483  -11.8756   19.5638 N   0  0  0  0  0  0  0  0  0  0  0  0
   10.4602  -11.0177   18.5837 N   0  0  0  0  0  0  0  0  0  0  0  0
    9.1260  -10.7278   18.4582 C   0  0  0  0  0  0  0  0  0  0  0  0
   -1.9774  -16.8420   19.0043 C   0  0  0  0  0  0  0  0  0  0  0  0
   -3.0225  -17.7428   19.4526 N   0  0  0  0  0  0  0  0  0  0  0  0
   -4.3892  -17.9313   18.9764 C   0  0  0  0  0  0  0  0  0  0  0  0
   -4.9991  -17.3375   18.1609 O   0  0  0  0  0  0  0  0  0  0  0  0
   -5.2160  -19.1186   19.4820 C   0  0  0  0  0  0  0  0  0  0  0  0
   -5.5141  -20.0947   18.5415 N   0  0  0  0  0  0  0  0  0  0  0  0
   -6.2995  -21.0782   19.0392 C   0  0  0  0  0  0  0  0  0  0  0  0
   -6.7496  -20.7298   20.2050 N   0  0  0  0  0  0  0  0  0  0  0  0
   -6.2414  -19.4476   20.4278 C   0  0  0  0  0  0  0  0  0  0  0  0
   -6.8620  -18.8404   21.5950 C   0  0  0  0  0  0  0  0  0  0  0  0
   -7.4216  -18.5561   22.5790 N   0  0  0  0  0  0  0  0  0  0  0  0
    0.3462  -17.2802   19.6345 H   0  0  0  0  0  0  0  0  0  0  0  0
    0.7618  -15.9957   20.6821 H   0  0  0  0  0  0  0  0  0  0  0  0
   -0.7262  -16.9015   20.8906 H   0  0  0  0  0  0  0  0  0  0  0  0
   -1.7127  -14.7048   19.3083 H   0  0  0  0  0  0  0  0  0  0  0  0
    0.3135  -13.3923   17.9524 H   0  0  0  0  0  0  0  0  0  0  0  0
    1.0209  -14.3286   16.8700 H   0  0  0  0  0  0  0  0  0  0  0  0
    2.7923  -14.8537   19.3744 H   0  0  0  0  0  0  0  0  0  0  0  0
    4.7514  -12.8807   20.4475 H   0  0  0  0  0  0  0  0  0  0  0  0
    5.7459  -13.9011   19.4886 H   0  0  0  0  0  0  0  0  0  0  0  0
    6.2387  -11.3694   20.7326 H   0  0  0  0  0  0  0  0  0  0  0  0
    6.1542  -10.8672   19.0094 H   0  0  0  0  0  0  0  0  0  0  0  0
    9.4596  -12.9598   20.8161 H   0  0  0  0  0  0  0  0  0  0  0  0
   11.2105  -10.7564   17.9560 H   0  0  0  0  0  0  0  0  0  0  0  0
    8.7881  -10.3113   17.5321 H   0  0  0  0  0  0  0  0  0  0  0  0
   -1.4391  -17.6590   18.5091 H   0  0  0  0  0  0  0  0  0  0  0  0
   -2.7060  -16.2774   18.4937 H   0  0  0  0  0  0  0  0  0  0  0  0
   -2.7950  -18.4731   20.0873 H   0  0  0  0  0  0  0  0  0  0  0  0
   -5.2888  -19.9514   17.5730 H   0  0  0  0  0  0  0  0  0  0  0  0
   -6.5655  -21.9754   18.4956 H   0  0  0  0  0  0  0  0  0  0  0  0
  1  2  1  0
  2  3  1  0
  3  4  1  0
  4  5  1  0
  5  6  2  0
  5  7  1  0
  7  8  1  0
  8  9  1  0
  9 10  1  0
 10 11  2  0
 11 12  1  0
 12 13  1  0
  2 14  1  0
 14 15  1  0
 15 16  1  0
 16 17  2  0
 16 18  1  0
 18 19  1  0
 19 20  1  0
 20 21  2  0
 21 22  1  0
 22 23  1  0
 23 24  3  0
 13  9  2  0
 22 18  2  0
  1 25  1  0
  1 26  1  0
  1 27  1  0
  2 28  1  0
  3 29  1  0
  3 30  1  0
  4 31  1  0
  7 32  1  0
  7 33  1  0
  8 34  1  0
  8 35  1  0
 10 36  1  0
 12 37  1  0
 13 38  1  0
 14 39  1  0
 14 40  1  0
 15 41  1  0
 19 42  1  0
 20 43  1  0
M  END
>  <Energy>  (1432) 
519.64805860447586

>  <compound_id>  (1432) 
12664

>  <target_id>  (1432) 
1

>  <reference_id>  (1432) 
64

>  <inspiration_ids>  (1432) 
[64, 81]

>  <energy_score>  (1432) 
524.7522132542408

>  <distance_score>  (1432) 
11.036874209033618

>  <path>  (1432) 
/opt/xchem-fragalysis-2/maxwin/BulkDock/SCRATCH/511022/C12664-P64/C12664-P64.minimised.mol

>  <scratch_subdir>  (1432) 
/opt/xchem-fragalysis-2/maxwin/BulkDock/SCRATCH/511022/C12664-P64

>  <fragmenstein_runtime>  (1432) 
30.792197465896606

>  <fragmenstein_outcome>  (1432) 
too moved

>  <fragmenstein_mode>  (1432) 
expansion

>  <fragmenstein_error>  (1432) 


$$$$
C12664-P81
     RDKit          3D

 43 44  0  0  0  0  0  0  0  0999 V2000
   -2.0024  -15.5422   19.8679 C   0  0  0  0  0  0  0  0  0  0  0  0
   -0.9231  -16.5423   20.0724 C   0  0  0  0  0  0  0  0  0  0  0  0
    0.9775  -15.9429   19.8342 C   0  0  0  0  0  0  0  0  0  0  0  0
    2.3504  -14.3896   20.0584 N   0  0  0  0  0  0  0  0  0  0  0  0
    3.7496  -13.6270   18.8750 C   0  0  0  0  0  0  0  0  0  0  0  0
    3.8852  -14.2318   17.8626 O   0  0  0  0  0  0  0  0  0  0  0  0
    5.1248  -11.9287   19.0911 C   0  0  0  0  0  0  0  0  0  0  0  0
    5.0926   -9.7372   18.4545 C   0  0  0  0  0  0  0  0  0  0  0  0
    5.3022   -7.6713   18.4542 C   0  0  0  0  0  0  0  0  0  0  0  0
    6.6592   -6.8166   18.8245 C   0  0  0  0  0  0  0  0  0  0  0  0
    6.5706   -5.5038   18.6485 N   0  0  0  0  0  0  0  0  0  0  0  0
    5.4730   -5.3988   17.9506 N   0  0  0  0  0  0  0  0  0  0  0  0
    5.0952   -6.6162   17.4966 C   0  0  0  0  0  0  0  0  0  0  0  0
   -1.9920  -17.7670   19.1467 C   0  0  0  0  0  0  0  0  0  0  0  0
   -3.3534  -18.7896   18.9270 N   0  0  0  0  0  0  0  0  0  0  0  0
   -4.7827  -18.6229   19.3191 C   0  0  0  0  0  0  0  0  0  0  0  0
   -5.3491  -17.6948   19.8142 O   0  0  0  0  0  0  0  0  0  0  0  0
   -5.6190  -19.8837   19.1473 C   0  0  0  0  0  0  0  0  0  0  0  0
   -6.0900  -20.2681   17.9109 N   0  0  0  0  0  0  0  0  0  0  0  0
   -6.8729  -21.3723   17.9871 C   0  0  0  0  0  0  0  0  0  0  0  0
   -7.0004  -21.7534   19.2200 N   0  0  0  0  0  0  0  0  0  0  0  0
   -6.3304  -20.8020   19.9795 C   0  0  0  0  0  0  0  0  0  0  0  0
   -6.5318  -21.0423   21.3935 C   0  0  0  0  0  0  0  0  0  0  0  0
   -6.7139  -21.3841   22.4930 N   0  0  0  0  0  0  0  0  0  0  0  0
   -2.0612  -14.7079   20.5520 H   0  0  0  0  0  0  0  0  0  0  0  0
   -2.9503  -16.0403   19.9901 H   0  0  0  0  0  0  0  0  0  0  0  0
   -1.8821  -15.1671   18.8575 H   0  0  0  0  0  0  0  0  0  0  0  0
   -0.7972  -17.0829   21.0038 H   0  0  0  0  0  0  0  0  0  0  0  0
    0.9660  -16.7657   19.1349 H   0  0  0  0  0  0  0  0  0  0  0  0
    0.7969  -16.0434   20.8589 H   0  0  0  0  0  0  0  0  0  0  0  0
    2.3632  -13.8828   20.9188 H   0  0  0  0  0  0  0  0  0  0  0  0
    6.1511  -12.1930   19.0233 H   0  0  0  0  0  0  0  0  0  0  0  0
    5.1729  -11.9014   20.2105 H   0  0  0  0  0  0  0  0  0  0  0  0
    4.2550   -9.1656   18.8866 H   0  0  0  0  0  0  0  0  0  0  0  0
    4.2151   -9.7574   17.6523 H   0  0  0  0  0  0  0  0  0  0  0  0
    7.5092   -7.1823   19.3852 H   0  0  0  0  0  0  0  0  0  0  0  0
    5.1067   -4.4968   17.6649 H   0  0  0  0  0  0  0  0  0  0  0  0
    4.5788   -6.4934   16.5697 H   0  0  0  0  0  0  0  0  0  0  0  0
   -1.2426  -18.3559   18.6333 H   0  0  0  0  0  0  0  0  0  0  0  0
   -2.1609  -18.0758   20.1537 H   0  0  0  0  0  0  0  0  0  0  0  0
   -3.2427  -19.6556   18.4694 H   0  0  0  0  0  0  0  0  0  0  0  0
   -5.8784  -19.7879   17.0593 H   0  0  0  0  0  0  0  0  0  0  0  0
   -7.3244  -21.8445   17.1235 H   0  0  0  0  0  0  0  0  0  0  0  0
  1  2  1  0
  2  3  1  0
  3  4  1  0
  4  5  1  0
  5  6  2  0
  5  7  1  0
  7  8  1  0
  8  9  1  0
  9 10  1  0
 10 11  2  0
 11 12  1  0
 12 13  1  0
  2 14  1  0
 14 15  1  0
 15 16  1  0
 16 17  2  0
 16 18  1  0
 18 19  1  0
 19 20  1  0
 20 21  2  0
 21 22  1  0
 22 23  1  0
 23 24  3  0
 13  9  2  0
 22 18  2  0
  1 25  1  0
  1 26  1  0
  1 27  1  0
  2 28  1  0
  3 29  1  0
  3 30  1  0
  4 31  1  0
  7 32  1  0
  7 33  1  0
  8 34  1  0
  8 35  1  0
 10 36  1  0
 12 37  1  0
 13 38  1  0
 14 39  1  0
 14 40  1  0
 15 41  1  0
 19 42  1  0
 20 43  1  0
M  END
>  <Energy>  (1433) 
1064.6202876329103

>  <compound_id>  (1433) 
12664

>  <target_id>  (1433) 
1

>  <reference_id>  (1433) 
81

>  <inspiration_ids>  (1433) 
[64, 81]

>  <energy_score>  (1433) 
1069.7244422826952

>  <distance_score>  (1433) 
9.717416701624938

>  <path>  (1433) 
/opt/xchem-fragalysis-2/maxwin/BulkDock/SCRATCH/511022/C12664-P81/C12664-P81.minimised.mol

>  <scratch_subdir>  (1433) 
/opt/xchem-fragalysis-2/maxwin/BulkDock/SCRATCH/511022/C12664-P81

>  <fragmenstein_runtime>  (1433) 
34.24734616279602

>  <fragmenstein_outcome>  (1433) 
too moved

>  <fragmenstein_mode>  (1433) 
expansion

>  <fragmenstein_error>  (1433) 


$$$$
C12665-P64
     RDKit          3D

 42 43  0  0  0  0  0  0  0  0999 V2000
   -5.6768  -19.0993   26.9774 C   0  0  0  0  0  0  0  0  0  0  0  0
   -5.2147  -17.7961   26.4891 C   0  0  0  0  0  0  0  0  0  0  0  0
   -5.1564  -17.3693   25.2464 N   0  0  0  0  0  0  0  0  0  0  0  0
   -4.3277  -16.2504   25.2736 C   0  0  0  0  0  0  0  0  0  0  0  0
   -3.8695  -15.5461   23.9468 C   0  0  0  0  0  0  0  0  0  0  0  0
   -2.2305  -15.2335   23.8235 C   0  0  0  0  0  0  0  0  0  0  0  0
   -1.7658  -15.2021   24.8893 O   0  0  0  0  0  0  0  0  0  0  0  0
   -1.1922  -14.9917   22.2643 N   0  0  0  0  0  0  0  0  0  0  0  0
    0.4153  -14.8409   22.0601 C   0  0  0  0  0  0  0  0  0  0  0  0
   -0.0159  -13.9680   23.2114 C   0  0  0  0  0  0  0  0  0  0  0  0
    1.8000  -15.0820   20.4419 C   0  0  0  0  0  0  0  0  0  0  0  0
    2.2386  -14.1613   18.7180 N   0  0  0  0  0  0  0  0  0  0  0  0
    3.5793  -12.9948   18.2901 C   0  0  0  0  0  0  0  0  0  0  0  0
    4.4846  -12.7312   19.0647 O   0  0  0  0  0  0  0  0  0  0  0  0
    3.7010  -11.7814   16.6360 C   0  0  0  0  0  0  0  0  0  0  0  0
    4.1021  -11.5896   14.7733 C   0  0  0  0  0  0  0  0  0  0  0  0
    3.6464  -10.5360   13.8109 C   0  0  0  0  0  0  0  0  0  0  0  0
    4.3185  -10.3831   12.6706 N   0  0  0  0  0  0  0  0  0  0  0  0
    5.1591  -11.3887   12.7192 N   0  0  0  0  0  0  0  0  0  0  0  0
    4.9498  -12.1892   13.8135 C   0  0  0  0  0  0  0  0  0  0  0  0
   -4.1108  -15.8940   26.5880 C   0  0  0  0  0  0  0  0  0  0  0  0
   -4.6855  -16.8724   27.3453 N   0  0  0  0  0  0  0  0  0  0  0  0
   -6.5561  -18.9636   27.6095 H   0  0  0  0  0  0  0  0  0  0  0  0
   -4.8875  -19.5811   27.5632 H   0  0  0  0  0  0  0  0  0  0  0  0
   -5.9165  -19.7627   26.1459 H   0  0  0  0  0  0  0  0  0  0  0  0
   -4.3820  -16.1098   23.1852 H   0  0  0  0  0  0  0  0  0  0  0  0
   -4.3549  -14.5900   24.1784 H   0  0  0  0  0  0  0  0  0  0  0  0
   -1.7829  -15.1416   21.4368 H   0  0  0  0  0  0  0  0  0  0  0  0
    1.1835  -14.8706   22.9019 H   0  0  0  0  0  0  0  0  0  0  0  0
    0.8128  -13.9590   23.9857 H   0  0  0  0  0  0  0  0  0  0  0  0
   -0.2485  -13.0008   22.7763 H   0  0  0  0  0  0  0  0  0  0  0  0
   -0.5812  -14.2153   24.0499 H   0  0  0  0  0  0  0  0  0  0  0  0
    1.1677  -15.9661   20.2104 H   0  0  0  0  0  0  0  0  0  0  0  0
    2.6208  -14.6407   20.9417 H   0  0  0  0  0  0  0  0  0  0  0  0
    1.6487  -14.2936   17.9037 H   0  0  0  0  0  0  0  0  0  0  0  0
    3.6046  -10.7526   17.0000 H   0  0  0  0  0  0  0  0  0  0  0  0
    2.6961  -11.7341   16.3197 H   0  0  0  0  0  0  0  0  0  0  0  0
    2.9048   -9.7605   13.9212 H   0  0  0  0  0  0  0  0  0  0  0  0
    5.8170  -11.5240   11.9582 H   0  0  0  0  0  0  0  0  0  0  0  0
    5.5931  -13.0482   13.7943 H   0  0  0  0  0  0  0  0  0  0  0  0
   -3.5540  -15.0803   27.0294 H   0  0  0  0  0  0  0  0  0  0  0  0
   -4.6257  -16.9614   28.3505 H   0  0  0  0  0  0  0  0  0  0  0  0
  1  2  1  0
  2  3  2  0
  3  4  1  0
  4  5  1  0
  5  6  1  0
  6  7  2  0
  6  8  1  0
  8  9  1  0
  9 10  1  0
  9 11  1  0
 11 12  1  0
 12 13  1  0
 13 14  2  0
 13 15  1  0
 15 16  1  0
 16 17  1  0
 17 18  2  0
 18 19  1  0
 19 20  1  0
  4 21  2  0
 21 22  1  0
 22  2  1  0
 20 16  2  0
  1 23  1  0
  1 24  1  0
  1 25  1  0
  5 26  1  0
  5 27  1  0
  8 28  1  0
  9 29  1  0
 10 30  1  0
 10 31  1  0
 10 32  1  0
 11 33  1  0
 11 34  1  0
 12 35  1  0
 15 36  1  0
 15 37  1  0
 17 38  1  0
 19 39  1  0
 20 40  1  0
 21 41  1  0
 22 42  1  0
M  END
>  <Energy>  (1434) 
787.60865850360267

>  <compound_id>  (1434) 
12665

>  <target_id>  (1434) 
1

>  <reference_id>  (1434) 
64

>  <inspiration_ids>  (1434) 
[64, 81]

>  <energy_score>  (1434) 
711.6406828556228

>  <distance_score>  (1434) 
12.182319695342581

>  <path>  (1434) 
/opt/xchem-fragalysis-2/maxwin/BulkDock/SCRATCH/511022/C12665-P64/C12665-P64.minimised.mol

>  <scratch_subdir>  (1434) 
/opt/xchem-fragalysis-2/maxwin/BulkDock/SCRATCH/511022/C12665-P64

>  <fragmenstein_runtime>  (1434) 
33.39290690422058

>  <fragmenstein_outcome>  (1434) 
too moved

>  <fragmenstein_mode>  (1434) 
expansion

>  <fragmenstein_error>  (1434) 


$$$$
C12665-P81
     RDKit          3D

 42 43  0  0  0  0  0  0  0  0999 V2000
   -5.0836  -20.7356   26.2645 C   0  0  0  0  0  0  0  0  0  0  0  0
   -5.3575  -19.2878   26.4321 C   0  0  0  0  0  0  0  0  0  0  0  0
   -5.2966  -18.3792   25.4822 N   0  0  0  0  0  0  0  0  0  0  0  0
   -5.0500  -17.1837   26.1272 C   0  0  0  0  0  0  0  0  0  0  0  0
   -4.4581  -15.9957   25.3879 C   0  0  0  0  0  0  0  0  0  0  0  0
   -2.9927  -16.2667   24.9111 C   0  0  0  0  0  0  0  0  0  0  0  0
   -2.3379  -17.2030   25.3480 O   0  0  0  0  0  0  0  0  0  0  0  0
   -2.6520  -15.1789   23.7353 N   0  0  0  0  0  0  0  0  0  0  0  0
   -1.0246  -14.9703   22.4353 C   0  0  0  0  0  0  0  0  0  0  0  0
   -0.3523  -14.0315   23.3591 C   0  0  0  0  0  0  0  0  0  0  0  0
    0.4172  -15.9244   21.1313 C   0  0  0  0  0  0  0  0  0  0  0  0
    1.9333  -14.7479   20.3650 N   0  0  0  0  0  0  0  0  0  0  0  0
    2.2816  -14.1755   18.6277 C   0  0  0  0  0  0  0  0  0  0  0  0
    1.7267  -14.4996   17.5972 O   0  0  0  0  0  0  0  0  0  0  0  0
    3.5706  -12.6672   18.2783 C   0  0  0  0  0  0  0  0  0  0  0  0
    2.9811  -10.8472   17.5310 C   0  0  0  0  0  0  0  0  0  0  0  0
    1.8308   -9.5386   17.9733 C   0  0  0  0  0  0  0  0  0  0  0  0
    2.0051   -8.4673   18.6374 N   0  0  0  0  0  0  0  0  0  0  0  0
    3.0781   -8.4668   18.0209 N   0  0  0  0  0  0  0  0  0  0  0  0
    3.6323   -9.6509   17.6766 C   0  0  0  0  0  0  0  0  0  0  0  0
   -5.3360  -17.3346   27.4688 C   0  0  0  0  0  0  0  0  0  0  0  0
   -5.5516  -18.6787   27.6483 N   0  0  0  0  0  0  0  0  0  0  0  0
   -4.2412  -21.0386   26.8946 H   0  0  0  0  0  0  0  0  0  0  0  0
   -4.8167  -20.9543   25.2254 H   0  0  0  0  0  0  0  0  0  0  0  0
   -5.9450  -21.3508   26.5259 H   0  0  0  0  0  0  0  0  0  0  0  0
   -5.0862  -15.7817   24.5171 H   0  0  0  0  0  0  0  0  0  0  0  0
   -4.4398  -15.1146   26.0377 H   0  0  0  0  0  0  0  0  0  0  0  0
   -3.4452  -14.6003   23.5769 H   0  0  0  0  0  0  0  0  0  0  0  0
   -1.6392  -14.5954   21.5711 H   0  0  0  0  0  0  0  0  0  0  0  0
   -0.2887  -13.1285   22.8046 H   0  0  0  0  0  0  0  0  0  0  0  0
   -0.8670  -14.0925   24.3072 H   0  0  0  0  0  0  0  0  0  0  0  0
    0.6392  -14.2045   23.7377 H   0  0  0  0  0  0  0  0  0  0  0  0
   -0.1876  -16.2994   20.2978 H   0  0  0  0  0  0  0  0  0  0  0  0
    0.5745  -15.0908   21.7543 H   0  0  0  0  0  0  0  0  0  0  0  0
    2.5459  -14.2562   21.0247 H   0  0  0  0  0  0  0  0  0  0  0  0
    4.0868  -12.4833   17.3993 H   0  0  0  0  0  0  0  0  0  0  0  0
    4.2730  -12.6697   19.1320 H   0  0  0  0  0  0  0  0  0  0  0  0
    0.9504   -9.1848   17.4747 H   0  0  0  0  0  0  0  0  0  0  0  0
    3.6473   -7.6521   18.0064 H   0  0  0  0  0  0  0  0  0  0  0  0
    4.6463   -9.4687   18.0395 H   0  0  0  0  0  0  0  0  0  0  0  0
   -5.2834  -16.6547   28.3066 H   0  0  0  0  0  0  0  0  0  0  0  0
   -5.6271  -19.1385   28.5476 H   0  0  0  0  0  0  0  0  0  0  0  0
  1  2  1  0
  2  3  2  0
  3  4  1  0
  4  5  1  0
  5  6  1  0
  6  7  2  0
  6  8  1  0
  8  9  1  0
  9 10  1  0
  9 11  1  0
 11 12  1  0
 12 13  1  0
 13 14  2  0
 13 15  1  0
 15 16  1  0
 16 17  1  0
 17 18  2  0
 18 19  1  0
 19 20  1  0
  4 21  2  0
 21 22  1  0
 22  2  1  0
 20 16  2  0
  1 23  1  0
  1 24  1  0
  1 25  1  0
  5 26  1  0
  5 27  1  0
  8 28  1  0
  9 29  1  0
 10 30  1  0
 10 31  1  0
 10 32  1  0
 11 33  1  0
 11 34  1  0
 12 35  1  0
 15 36  1  0
 15 37  1  0
 17 38  1  0
 19 39  1  0
 20 40  1  0
 21 41  1  0
 22 42  1  0
M  END
>  <Energy>  (1435) 
891.14816987612824

>  <compound_id>  (1435) 
12665

>  <target_id>  (1435) 
1

>  <reference_id>  (1435) 
81

>  <inspiration_ids>  (1435) 
[64, 81]

>  <energy_score>  (1435) 
815.1801942281727

>  <distance_score>  (1435) 
11.584009679108712

>  <path>  (1435) 
/opt/xchem-fragalysis-2/maxwin/BulkDock/SCRATCH/511022/C12665-P81/C12665-P81.minimised.mol

>  <scratch_subdir>  (1435) 
/opt/xchem-fragalysis-2/maxwin/BulkDock/SCRATCH/511022/C12665-P81

>  <fragmenstein_runtime>  (1435) 
24.86538076400757

>  <fragmenstein_outcome>  (1435) 
too moved

>  <fragmenstein_mode>  (1435) 
expansion

>  <fragmenstein_error>  (1435) 


$$$$
C12666-P64
     RDKit          3D

 48 49  0  0  0  0  0  0  0  0999 V2000
   11.3464  -14.1537   21.7795 C   0  0  0  0  0  0  0  0  0  0  0  0
   10.4214  -14.1657   20.5486 C   0  0  0  0  0  0  0  0  0  0  0  0
   11.0852  -13.4931   19.3524 C   0  0  0  0  0  0  0  0  0  0  0  0
    8.8984  -13.9266   20.9192 C   0  0  0  0  0  0  0  0  0  0  0  0
    7.9220  -12.5044   20.8365 C   0  0  0  0  0  0  0  0  0  0  0  0
    6.1540  -12.3344   19.9954 C   0  0  0  0  0  0  0  0  0  0  0  0
    4.5373  -13.0735   19.8282 N   0  0  0  0  0  0  0  0  0  0  0  0
    3.9174  -14.2359   18.6704 C   0  0  0  0  0  0  0  0  0  0  0  0
    4.5373  -14.7950   17.8006 O   0  0  0  0  0  0  0  0  0  0  0  0
    2.1684  -14.9088   18.7261 C   0  0  0  0  0  0  0  0  0  0  0  0
    0.7990  -16.1476   19.6911 C   0  0  0  0  0  0  0  0  0  0  0  0
   -0.9160  -16.5143   20.0023 C   0  0  0  0  0  0  0  0  0  0  0  0
   -1.3625  -17.6603   20.4545 N   0  0  0  0  0  0  0  0  0  0  0  0
   -2.4470  -17.9965   19.6961 C   0  0  0  0  0  0  0  0  0  0  0  0
   -2.9360  -16.8958   19.1293 C   0  0  0  0  0  0  0  0  0  0  0  0
   -1.9996  -15.9270   19.4102 N   0  0  0  0  0  0  0  0  0  0  0  0
    9.0775  -11.5866   20.9146 N   0  0  0  0  0  0  0  0  0  0  0  0
    9.8888  -11.1770   22.0482 C   0  0  0  0  0  0  0  0  0  0  0  0
    9.7759  -11.4180   23.2132 O   0  0  0  0  0  0  0  0  0  0  0  0
   11.0228  -10.2960   21.7301 C   0  0  0  0  0  0  0  0  0  0  0  0
   12.2942  -10.6177   21.2075 C   0  0  0  0  0  0  0  0  0  0  0  0
   13.2077   -9.6681   21.4315 N   0  0  0  0  0  0  0  0  0  0  0  0
   12.5180   -8.7029   22.0642 N   0  0  0  0  0  0  0  0  0  0  0  0
   11.2018   -9.0125   22.2276 C   0  0  0  0  0  0  0  0  0  0  0  0
   10.9576  -14.8046   22.5705 H   0  0  0  0  0  0  0  0  0  0  0  0
   11.4820  -13.1621   22.2016 H   0  0  0  0  0  0  0  0  0  0  0  0
   12.3399  -14.5361   21.5186 H   0  0  0  0  0  0  0  0  0  0  0  0
   10.4387  -15.2336   20.2716 H   0  0  0  0  0  0  0  0  0  0  0  0
   12.1728  -13.6290   19.3845 H   0  0  0  0  0  0  0  0  0  0  0  0
   10.7684  -13.9654   18.4177 H   0  0  0  0  0  0  0  0  0  0  0  0
   10.9030  -12.4236   19.2822 H   0  0  0  0  0  0  0  0  0  0  0  0
    8.4147  -14.7266   20.3810 H   0  0  0  0  0  0  0  0  0  0  0  0
    8.9297  -14.2352   21.9646 H   0  0  0  0  0  0  0  0  0  0  0  0
    7.5580  -12.1356   21.7923 H   0  0  0  0  0  0  0  0  0  0  0  0
    5.8069  -11.6728   20.7887 H   0  0  0  0  0  0  0  0  0  0  0  0
    6.1789  -11.5725   19.2185 H   0  0  0  0  0  0  0  0  0  0  0  0
    3.8155  -12.8377   20.4871 H   0  0  0  0  0  0  0  0  0  0  0  0
    2.5057  -15.6303   17.9641 H   0  0  0  0  0  0  0  0  0  0  0  0
    1.6351  -14.2282   18.0338 H   0  0  0  0  0  0  0  0  0  0  0  0
    0.8625  -17.1273   19.1830 H   0  0  0  0  0  0  0  0  0  0  0  0
    0.9759  -16.0100   20.7170 H   0  0  0  0  0  0  0  0  0  0  0  0
   -2.8558  -18.9905   19.6078 H   0  0  0  0  0  0  0  0  0  0  0  0
   -3.7813  -16.8102   18.4595 H   0  0  0  0  0  0  0  0  0  0  0  0
   -1.8871  -15.0633   18.9150 H   0  0  0  0  0  0  0  0  0  0  0  0
    9.5163  -11.2641   20.0600 H   0  0  0  0  0  0  0  0  0  0  0  0
   12.6305  -11.5443   20.7645 H   0  0  0  0  0  0  0  0  0  0  0  0
   13.0136   -7.8676   22.3620 H   0  0  0  0  0  0  0  0  0  0  0  0
   10.5555   -8.3599   22.7962 H   0  0  0  0  0  0  0  0  0  0  0  0
  1  2  1  0
  2  3  1  0
  2  4  1  0
  4  5  1  0
  5  6  1  0
  6  7  1  0
  7  8  1  0
  8  9  2  0
  8 10  1  0
 10 11  1  0
 11 12  1  0
 12 13  2  0
 13 14  1  0
 14 15  2  0
 15 16  1  0
  5 17  1  0
 17 18  1  0
 18 19  2  0
 18 20  1  0
 20 21  1  0
 21 22  2  0
 22 23  1  0
 23 24  1  0
 16 12  1  0
 24 20  2  0
  1 25  1  0
  1 26  1  0
  1 27  1  0
  2 28  1  0
  3 29  1  0
  3 30  1  0
  3 31  1  0
  4 32  1  0
  4 33  1  0
  5 34  1  0
  6 35  1  0
  6 36  1  0
  7 37  1  0
 10 38  1  0
 10 39  1  0
 11 40  1  0
 11 41  1  0
 14 42  1  0
 15 43  1  0
 16 44  1  0
 17 45  1  0
 21 46  1  0
 23 47  1  0
 24 48  1  0
M  END
>  <Energy>  (1436) 
441.64239872792882

>  <compound_id>  (1436) 
12666

>  <target_id>  (1436) 
1

>  <reference_id>  (1436) 
64

>  <inspiration_ids>  (1436) 
[64, 81]

>  <energy_score>  (1436) 
416.5767022924523

>  <distance_score>  (1436) 
12.736836375344904

>  <path>  (1436) 
/opt/xchem-fragalysis-2/maxwin/BulkDock/SCRATCH/511022/C12666-P64/C12666-P64.minimised.mol

>  <scratch_subdir>  (1436) 
/opt/xchem-fragalysis-2/maxwin/BulkDock/SCRATCH/511022/C12666-P64

>  <fragmenstein_runtime>  (1436) 
38.81822061538696

>  <fragmenstein_outcome>  (1436) 
too moved

>  <fragmenstein_mode>  (1436) 
expansion

>  <fragmenstein_error>  (1436) 


$$$$
C12666-P81
     RDKit          3D

 48 49  0  0  0  0  0  0  0  0999 V2000
   -2.2108  -14.3509   16.9326 C   0  0  0  0  0  0  0  0  0  0  0  0
   -1.4692  -13.3096   17.6531 C   0  0  0  0  0  0  0  0  0  0  0  0
   -2.0496  -12.1288   18.5875 C   0  0  0  0  0  0  0  0  0  0  0  0
    0.2978  -13.5330   17.3812 C   0  0  0  0  0  0  0  0  0  0  0  0
    1.8427  -13.5271   17.9810 C   0  0  0  0  0  0  0  0  0  0  0  0
    2.3173  -14.8491   18.9315 C   0  0  0  0  0  0  0  0  0  0  0  0
    0.9933  -15.9327   19.9649 N   0  0  0  0  0  0  0  0  0  0  0  0
    0.2832  -17.1918   19.6300 C   0  0  0  0  0  0  0  0  0  0  0  0
    0.4013  -17.9315   18.6761 O   0  0  0  0  0  0  0  0  0  0  0  0
   -0.8225  -17.5299   20.5408 C   0  0  0  0  0  0  0  0  0  0  0  0
   -2.0835  -17.7340   19.3949 C   0  0  0  0  0  0  0  0  0  0  0  0
   -3.4918  -18.3704   19.1840 C   0  0  0  0  0  0  0  0  0  0  0  0
   -4.0542  -19.4913   19.6073 N   0  0  0  0  0  0  0  0  0  0  0  0
   -5.4204  -19.2732   19.5357 C   0  0  0  0  0  0  0  0  0  0  0  0
   -5.6565  -18.3444   18.5732 C   0  0  0  0  0  0  0  0  0  0  0  0
   -4.4184  -17.8217   18.3001 N   0  0  0  0  0  0  0  0  0  0  0  0
    3.1919  -11.9437   17.9662 N   0  0  0  0  0  0  0  0  0  0  0  0
    2.9657   -9.9709   17.9525 C   0  0  0  0  0  0  0  0  0  0  0  0
    1.9049   -9.3782   17.8461 O   0  0  0  0  0  0  0  0  0  0  0  0
    4.4444   -8.6420   18.3156 C   0  0  0  0  0  0  0  0  0  0  0  0
    5.5752   -7.5374   19.0166 C   0  0  0  0  0  0  0  0  0  0  0  0
    6.4696   -6.5553   18.5229 N   0  0  0  0  0  0  0  0  0  0  0  0
    5.7322   -6.1213   17.6139 N   0  0  0  0  0  0  0  0  0  0  0  0
    4.7223   -7.0182   17.5779 C   0  0  0  0  0  0  0  0  0  0  0  0
   -3.2341  -14.1476   16.6631 H   0  0  0  0  0  0  0  0  0  0  0  0
   -1.8126  -14.5624   15.9693 H   0  0  0  0  0  0  0  0  0  0  0  0
   -2.0776  -15.1645   17.6052 H   0  0  0  0  0  0  0  0  0  0  0  0
   -1.8251  -12.6933   16.8871 H   0  0  0  0  0  0  0  0  0  0  0  0
   -1.6057  -11.1691   18.3292 H   0  0  0  0  0  0  0  0  0  0  0  0
   -3.1060  -11.9313   18.3891 H   0  0  0  0  0  0  0  0  0  0  0  0
   -1.9419  -12.2512   19.6671 H   0  0  0  0  0  0  0  0  0  0  0  0
    0.6170  -14.0491   16.4884 H   0  0  0  0  0  0  0  0  0  0  0  0
   -0.1202  -12.6016   17.4585 H   0  0  0  0  0  0  0  0  0  0  0  0
    1.1389  -13.1897   18.6281 H   0  0  0  0  0  0  0  0  0  0  0  0
    2.5259  -14.3653   19.8591 H   0  0  0  0  0  0  0  0  0  0  0  0
    3.0965  -15.3054   18.2965 H   0  0  0  0  0  0  0  0  0  0  0  0
    0.7091  -15.6301   20.8732 H   0  0  0  0  0  0  0  0  0  0  0  0
   -0.5546  -18.1546   21.3724 H   0  0  0  0  0  0  0  0  0  0  0  0
   -1.0303  -16.5504   20.8999 H   0  0  0  0  0  0  0  0  0  0  0  0
   -2.3130  -16.6758   19.2177 H   0  0  0  0  0  0  0  0  0  0  0  0
   -1.6238  -18.1905   18.5243 H   0  0  0  0  0  0  0  0  0  0  0  0
   -6.1337  -19.8841   20.0768 H   0  0  0  0  0  0  0  0  0  0  0  0
   -6.5636  -18.0098   18.0926 H   0  0  0  0  0  0  0  0  0  0  0  0
   -4.2371  -17.0726   17.6459 H   0  0  0  0  0  0  0  0  0  0  0  0
    4.1333  -12.1735   18.1463 H   0  0  0  0  0  0  0  0  0  0  0  0
    6.1692   -7.7505   19.8874 H   0  0  0  0  0  0  0  0  0  0  0  0
    5.9565   -5.3159   17.0327 H   0  0  0  0  0  0  0  0  0  0  0  0
    4.2627   -6.6972   16.6535 H   0  0  0  0  0  0  0  0  0  0  0  0
  1  2  1  0
  2  3  1  0
  2  4  1  0
  4  5  1  0
  5  6  1  0
  6  7  1  0
  7  8  1  0
  8  9  2  0
  8 10  1  0
 10 11  1  0
 11 12  1  0
 12 13  2  0
 13 14  1  0
 14 15  2  0
 15 16  1  0
  5 17  1  0
 17 18  1  0
 18 19  2  0
 18 20  1  0
 20 21  1  0
 21 22  2  0
 22 23  1  0
 23 24  1  0
 16 12  1  0
 24 20  2  0
  1 25  1  0
  1 26  1  0
  1 27  1  0
  2 28  1  0
  3 29  1  0
  3 30  1  0
  3 31  1  0
  4 32  1  0
  4 33  1  0
  5 34  1  0
  6 35  1  0
  6 36  1  0
  7 37  1  0
 10 38  1  0
 10 39  1  0
 11 40  1  0
 11 41  1  0
 14 42  1  0
 15 43  1  0
 16 44  1  0
 17 45  1  0
 21 46  1  0
 23 47  1  0
 24 48  1  0
M  END
>  <Energy>  (1437) 
919.80581648776013

>  <compound_id>  (1437) 
12666

>  <target_id>  (1437) 
1

>  <reference_id>  (1437) 
81

>  <inspiration_ids>  (1437) 
[64, 81]

>  <energy_score>  (1437) 
894.740120052311

>  <distance_score>  (1437) 
11.100656898835958

>  <path>  (1437) 
/opt/xchem-fragalysis-2/maxwin/BulkDock/SCRATCH/511022/C12666-P81/C12666-P81.minimised.mol

>  <scratch_subdir>  (1437) 
/opt/xchem-fragalysis-2/maxwin/BulkDock/SCRATCH/511022/C12666-P81

>  <fragmenstein_runtime>  (1437) 
39.726454734802246

>  <fragmenstein_outcome>  (1437) 
too moved

>  <fragmenstein_mode>  (1437) 
expansion

>  <fragmenstein_error>  (1437) 


$$$$
C10597-P64
     RDKit          3D

 48 49  0  0  0  0  0  0  0  0999 V2000
    5.1010  -13.5944   10.4433 C   0  0  0  0  0  0  0  0  0  0  0  0
    3.6533  -14.0699   10.3330 C   0  0  0  0  0  0  0  0  0  0  0  0
    3.3202  -14.3508    8.8632 C   0  0  0  0  0  0  0  0  0  0  0  0
    2.6244  -13.0686   10.9075 C   0  0  0  0  0  0  0  0  0  0  0  0
    2.7457  -12.7097   12.4103 C   0  0  0  0  0  0  0  0  0  0  0  0
    2.7205  -13.9970   13.2910 C   0  0  0  0  0  0  0  0  0  0  0  0
    1.8768  -13.8977   14.4663 N   0  0  0  0  0  0  0  0  0  0  0  0
    1.8208  -14.7394   15.7093 C   0  0  0  0  0  0  0  0  0  0  0  0
    2.4130  -15.7545   15.9947 O   0  0  0  0  0  0  0  0  0  0  0  0
    0.6743  -13.8910   17.0410 C   0  0  0  0  0  0  0  0  0  0  0  0
   -1.2609  -13.8380   17.7347 C   0  0  0  0  0  0  0  0  0  0  0  0
   -1.8379  -15.4137   18.7549 C   0  0  0  0  0  0  0  0  0  0  0  0
   -2.7394  -16.3729   18.3082 N   0  0  0  0  0  0  0  0  0  0  0  0
   -2.9970  -17.4288   19.1211 C   0  0  0  0  0  0  0  0  0  0  0  0
   -2.0194  -17.3533   20.0126 C   0  0  0  0  0  0  0  0  0  0  0  0
   -1.3593  -16.1639   19.8550 N   0  0  0  0  0  0  0  0  0  0  0  0
    3.8506  -11.7447   12.5905 N   0  0  0  0  0  0  0  0  0  0  0  0
    4.4216  -11.1704   13.7853 C   0  0  0  0  0  0  0  0  0  0  0  0
    4.1979  -11.3904   14.9392 O   0  0  0  0  0  0  0  0  0  0  0  0
    5.4050  -10.0519   13.4577 C   0  0  0  0  0  0  0  0  0  0  0  0
    6.1205   -9.7984   12.2463 C   0  0  0  0  0  0  0  0  0  0  0  0
    6.8250   -8.6367   12.4494 C   0  0  0  0  0  0  0  0  0  0  0  0
    6.5691   -8.2675   13.7314 N   0  0  0  0  0  0  0  0  0  0  0  0
    5.7130   -9.0873   14.3586 N   0  0  0  0  0  0  0  0  0  0  0  0
    5.2315  -12.6058    9.9909 H   0  0  0  0  0  0  0  0  0  0  0  0
    5.4260  -13.5472   11.4866 H   0  0  0  0  0  0  0  0  0  0  0  0
    5.7774  -14.2882    9.9319 H   0  0  0  0  0  0  0  0  0  0  0  0
    3.5705  -15.0222   10.8692 H   0  0  0  0  0  0  0  0  0  0  0  0
    3.3996  -13.4419    8.2569 H   0  0  0  0  0  0  0  0  0  0  0  0
    2.3013  -14.7393    8.7619 H   0  0  0  0  0  0  0  0  0  0  0  0
    4.0029  -15.0980    8.4446 H   0  0  0  0  0  0  0  0  0  0  0  0
    2.6530  -12.1439   10.3147 H   0  0  0  0  0  0  0  0  0  0  0  0
    1.6220  -13.4915   10.7522 H   0  0  0  0  0  0  0  0  0  0  0  0
    1.8513  -12.1213   12.6533 H   0  0  0  0  0  0  0  0  0  0  0  0
    2.2999  -14.8412   12.7351 H   0  0  0  0  0  0  0  0  0  0  0  0
    3.7274  -14.2826   13.6119 H   0  0  0  0  0  0  0  0  0  0  0  0
    1.1871  -13.1651   14.5327 H   0  0  0  0  0  0  0  0  0  0  0  0
    1.2852  -14.2262   17.8656 H   0  0  0  0  0  0  0  0  0  0  0  0
    0.1959  -14.4122   16.2416 H   0  0  0  0  0  0  0  0  0  0  0  0
   -1.8969  -13.9736   16.8327 H   0  0  0  0  0  0  0  0  0  0  0  0
   -1.5791  -12.8689   18.1473 H   0  0  0  0  0  0  0  0  0  0  0  0
   -3.7335  -18.1900   18.9022 H   0  0  0  0  0  0  0  0  0  0  0  0
   -1.6423  -18.0155   20.7523 H   0  0  0  0  0  0  0  0  0  0  0  0
   -0.4163  -16.1929   20.1984 H   0  0  0  0  0  0  0  0  0  0  0  0
    4.2178  -11.2606   11.7848 H   0  0  0  0  0  0  0  0  0  0  0  0
    6.1237  -10.3830   11.3377 H   0  0  0  0  0  0  0  0  0  0  0  0
    7.4859   -8.0755   11.8053 H   0  0  0  0  0  0  0  0  0  0  0  0
    6.9361   -7.4724   14.2447 H   0  0  0  0  0  0  0  0  0  0  0  0
  1  2  1  0
  2  3  1  0
  2  4  1  0
  4  5  1  0
  5  6  1  0
  6  7  1  0
  7  8  1  0
  8  9  2  0
  8 10  1  0
 10 11  1  0
 11 12  1  0
 12 13  2  0
 13 14  1  0
 14 15  2  0
 15 16  1  0
  5 17  1  0
 17 18  1  0
 18 19  2  0
 18 20  1  0
 20 21  1  0
 21 22  2  0
 22 23  1  0
 23 24  1  0
 16 12  1  0
 24 20  2  0
  1 25  1  0
  1 26  1  0
  1 27  1  0
  2 28  1  0
  3 29  1  0
  3 30  1  0
  3 31  1  0
  4 32  1  0
  4 33  1  0
  5 34  1  0
  6 35  1  0
  6 36  1  0
  7 37  1  0
 10 38  1  0
 10 39  1  0
 11 40  1  0
 11 41  1  0
 14 42  1  0
 15 43  1  0
 16 44  1  0
 17 45  1  0
 21 46  1  0
 22 47  1  0
 23 48  1  0
M  END
>  <Energy>  (1438) 
294.13495774652478

>  <compound_id>  (1438) 
10597

>  <target_id>  (1438) 
1

>  <reference_id>  (1438) 
64

>  <inspiration_ids>  (1438) 
[64, 81]

>  <energy_score>  (1438) 
253.11335637035995

>  <distance_score>  (1438) 
12.949328259137282

>  <path>  (1438) 
/opt/xchem-fragalysis-2/maxwin/BulkDock/SCRATCH/511022/C10597-P64/C10597-P64.minimised.mol

>  <scratch_subdir>  (1438) 
/opt/xchem-fragalysis-2/maxwin/BulkDock/SCRATCH/511022/C10597-P64

>  <fragmenstein_runtime>  (1438) 
53.50092959403992

>  <fragmenstein_outcome>  (1438) 
too moved

>  <fragmenstein_mode>  (1438) 
expansion

>  <fragmenstein_error>  (1438) 


$$$$
C10597-P81
     RDKit          3D

 48 49  0  0  0  0  0  0  0  0999 V2000
    1.0815   -7.9274   18.0456 C   0  0  0  0  0  0  0  0  0  0  0  0
   -0.3951   -7.9328   18.4402 C   0  0  0  0  0  0  0  0  0  0  0  0
   -1.4229   -8.0711   17.2913 C   0  0  0  0  0  0  0  0  0  0  0  0
   -0.9213   -8.7574   19.7705 C   0  0  0  0  0  0  0  0  0  0  0  0
   -0.0274   -9.3295   21.1511 C   0  0  0  0  0  0  0  0  0  0  0  0
   -1.2966  -10.8020   21.2027 C   0  0  0  0  0  0  0  0  0  0  0  0
   -1.6653  -12.1838   20.0200 N   0  0  0  0  0  0  0  0  0  0  0  0
   -1.9724  -13.9133   20.3200 C   0  0  0  0  0  0  0  0  0  0  0  0
   -2.0797  -14.4659   21.3625 O   0  0  0  0  0  0  0  0  0  0  0  0
   -2.0039  -15.0762   19.0564 C   0  0  0  0  0  0  0  0  0  0  0  0
   -2.5617  -16.5726   19.4697 C   0  0  0  0  0  0  0  0  0  0  0  0
   -3.5763  -17.5315   18.7847 C   0  0  0  0  0  0  0  0  0  0  0  0
   -3.8598  -18.7199   19.2794 N   0  0  0  0  0  0  0  0  0  0  0  0
   -5.1311  -19.0048   18.8854 C   0  0  0  0  0  0  0  0  0  0  0  0
   -5.4597  -18.2202   17.8190 C   0  0  0  0  0  0  0  0  0  0  0  0
   -4.4213  -17.3280   17.7155 N   0  0  0  0  0  0  0  0  0  0  0  0
    1.1812   -8.1890   22.0808 N   0  0  0  0  0  0  0  0  0  0  0  0
    2.8615   -8.5223   22.9753 C   0  0  0  0  0  0  0  0  0  0  0  0
    3.3701   -9.8183   23.1247 O   0  0  0  0  0  0  0  0  0  0  0  0
    4.0744   -7.2488   23.9703 C   0  0  0  0  0  0  0  0  0  0  0  0
    5.6527   -6.7887   24.0516 C   0  0  0  0  0  0  0  0  0  0  0  0
    6.0411   -6.2026   25.2244 C   0  0  0  0  0  0  0  0  0  0  0  0
    4.8602   -6.0304   25.7849 N   0  0  0  0  0  0  0  0  0  0  0  0
    3.8378   -6.5709   25.1334 N   0  0  0  0  0  0  0  0  0  0  0  0
    1.6050   -7.1654   18.6313 H   0  0  0  0  0  0  0  0  0  0  0  0
    1.2017   -7.6224   17.0005 H   0  0  0  0  0  0  0  0  0  0  0  0
    1.6262   -8.8526   18.1876 H   0  0  0  0  0  0  0  0  0  0  0  0
   -0.4699   -6.8590   18.5359 H   0  0  0  0  0  0  0  0  0  0  0  0
   -1.9341   -9.0352   17.2928 H   0  0  0  0  0  0  0  0  0  0  0  0
   -0.9683   -7.9048   16.3101 H   0  0  0  0  0  0  0  0  0  0  0  0
   -2.2171   -7.3237   17.4113 H   0  0  0  0  0  0  0  0  0  0  0  0
   -1.4213   -9.6080   19.2583 H   0  0  0  0  0  0  0  0  0  0  0  0
   -1.9421   -8.6014   20.1887 H   0  0  0  0  0  0  0  0  0  0  0  0
   -0.6982   -8.8845   21.9115 H   0  0  0  0  0  0  0  0  0  0  0  0
   -0.7807  -11.2214   22.0197 H   0  0  0  0  0  0  0  0  0  0  0  0
   -2.2846  -10.3697   21.3809 H   0  0  0  0  0  0  0  0  0  0  0  0
   -1.7073  -11.9918   19.0219 H   0  0  0  0  0  0  0  0  0  0  0  0
   -1.9095  -14.6750   18.0383 H   0  0  0  0  0  0  0  0  0  0  0  0
   -1.0403  -15.4406   19.2229 H   0  0  0  0  0  0  0  0  0  0  0  0
   -1.6959  -17.2156   19.6875 H   0  0  0  0  0  0  0  0  0  0  0  0
   -3.0293  -16.4305   20.4267 H   0  0  0  0  0  0  0  0  0  0  0  0
   -5.7085  -19.7758   19.3667 H   0  0  0  0  0  0  0  0  0  0  0  0
   -6.3231  -18.1872   17.1718 H   0  0  0  0  0  0  0  0  0  0  0  0
   -4.3580  -16.5796   17.0391 H   0  0  0  0  0  0  0  0  0  0  0  0
    1.0506   -7.1970   22.0132 H   0  0  0  0  0  0  0  0  0  0  0  0
    6.4255   -6.6555   23.3031 H   0  0  0  0  0  0  0  0  0  0  0  0
    6.9681   -5.7746   25.5776 H   0  0  0  0  0  0  0  0  0  0  0  0
    4.6506   -5.5134   26.6315 H   0  0  0  0  0  0  0  0  0  0  0  0
  1  2  1  0
  2  3  1  0
  2  4  1  0
  4  5  1  0
  5  6  1  0
  6  7  1  0
  7  8  1  0
  8  9  2  0
  8 10  1  0
 10 11  1  0
 11 12  1  0
 12 13  2  0
 13 14  1  0
 14 15  2  0
 15 16  1  0
  5 17  1  0
 17 18  1  0
 18 19  2  0
 18 20  1  0
 20 21  1  0
 21 22  2  0
 22 23  1  0
 23 24  1  0
 16 12  1  0
 24 20  2  0
  1 25  1  0
  1 26  1  0
  1 27  1  0
  2 28  1  0
  3 29  1  0
  3 30  1  0
  3 31  1  0
  4 32  1  0
  4 33  1  0
  5 34  1  0
  6 35  1  0
  6 36  1  0
  7 37  1  0
 10 38  1  0
 10 39  1  0
 11 40  1  0
 11 41  1  0
 14 42  1  0
 15 43  1  0
 16 44  1  0
 17 45  1  0
 21 46  1  0
 22 47  1  0
 23 48  1  0
M  END
>  <Energy>  (1439) 
669.82759184799488

>  <compound_id>  (1439) 
10597

>  <target_id>  (1439) 
1

>  <reference_id>  (1439) 
81

>  <inspiration_ids>  (1439) 
[64, 81]

>  <energy_score>  (1439) 
628.8059904718453

>  <distance_score>  (1439) 
13.31029791487499

>  <path>  (1439) 
/opt/xchem-fragalysis-2/maxwin/BulkDock/SCRATCH/511022/C10597-P81/C10597-P81.minimised.mol

>  <scratch_subdir>  (1439) 
/opt/xchem-fragalysis-2/maxwin/BulkDock/SCRATCH/511022/C10597-P81

>  <fragmenstein_runtime>  (1439) 
32.93018555641174

>  <fragmenstein_outcome>  (1439) 
too moved

>  <fragmenstein_mode>  (1439) 
expansion

>  <fragmenstein_error>  (1439) 


$$$$
C10598-P64
     RDKit          3D

 51 52  0  0  0  0  0  0  0  0999 V2000
   -2.1995  -14.2373   16.7296 C   0  0  0  0  0  0  0  0  0  0  0  0
   -1.3613  -13.9336   17.9442 C   0  0  0  0  0  0  0  0  0  0  0  0
   -1.8193  -15.2076   19.0794 C   0  0  0  0  0  0  0  0  0  0  0  0
    0.6392  -13.9434   17.7472 C   0  0  0  0  0  0  0  0  0  0  0  0
    2.0622  -14.8643   18.6263 C   0  0  0  0  0  0  0  0  0  0  0  0
    1.1158  -15.8495   20.1761 C   0  0  0  0  0  0  0  0  0  0  0  0
   -0.1180  -16.8209   20.9508 N   0  0  0  0  0  0  0  0  0  0  0  0
   -0.0842  -18.2842   21.5466 C   0  0  0  0  0  0  0  0  0  0  0  0
    0.8662  -18.9996   21.4468 O   0  0  0  0  0  0  0  0  0  0  0  0
   -1.5256  -19.1991   22.7431 C   0  0  0  0  0  0  0  0  0  0  0  0
   -2.7192  -20.6284   23.5812 C   0  0  0  0  0  0  0  0  0  0  0  0
   -4.4863  -21.1644   24.4681 C   0  0  0  0  0  0  0  0  0  0  0  0
   -4.8312  -20.9414   25.7856 N   0  0  0  0  0  0  0  0  0  0  0  0
   -5.4785  -22.2490   26.6739 C   0  0  0  0  0  0  0  0  0  0  0  0
   -6.0308  -23.0942   25.7374 C   0  0  0  0  0  0  0  0  0  0  0  0
   -5.4488  -22.7297   24.2620 N   0  0  0  0  0  0  0  0  0  0  0  0
   -5.7109  -23.8376   23.3103 C   0  0  0  0  0  0  0  0  0  0  0  0
    3.5930  -13.8834   18.5916 N   0  0  0  0  0  0  0  0  0  0  0  0
    4.4194  -12.9352   19.8560 C   0  0  0  0  0  0  0  0  0  0  0  0
    4.0296  -12.8929   20.9845 O   0  0  0  0  0  0  0  0  0  0  0  0
    5.9843  -12.0430   19.7310 C   0  0  0  0  0  0  0  0  0  0  0  0
    6.8493  -10.7015   19.1599 C   0  0  0  0  0  0  0  0  0  0  0  0
    8.0185  -10.5412   19.8842 C   0  0  0  0  0  0  0  0  0  0  0  0
    7.8990  -11.4701   20.8452 N   0  0  0  0  0  0  0  0  0  0  0  0
    6.7907  -12.2320   20.8275 N   0  0  0  0  0  0  0  0  0  0  0  0
   -2.9359  -13.4790   16.7265 H   0  0  0  0  0  0  0  0  0  0  0  0
   -2.8227  -15.1158   16.6801 H   0  0  0  0  0  0  0  0  0  0  0  0
   -1.6209  -14.2953   15.8510 H   0  0  0  0  0  0  0  0  0  0  0  0
   -1.6602  -12.9001   18.2199 H   0  0  0  0  0  0  0  0  0  0  0  0
   -2.3998  -16.0625   18.7345 H   0  0  0  0  0  0  0  0  0  0  0  0
   -2.1882  -14.8779   20.0500 H   0  0  0  0  0  0  0  0  0  0  0  0
   -1.0143  -15.7458   19.4484 H   0  0  0  0  0  0  0  0  0  0  0  0
    0.6596  -13.1724   18.3799 H   0  0  0  0  0  0  0  0  0  0  0  0
    0.9906  -13.8986   16.7423 H   0  0  0  0  0  0  0  0  0  0  0  0
    2.4940  -15.5851   17.9312 H   0  0  0  0  0  0  0  0  0  0  0  0
    2.0397  -15.4204   20.5780 H   0  0  0  0  0  0  0  0  0  0  0  0
    0.9287  -15.2726   21.0547 H   0  0  0  0  0  0  0  0  0  0  0  0
   -0.9864  -16.3889   21.2338 H   0  0  0  0  0  0  0  0  0  0  0  0
   -1.7794  -20.0427   22.2539 H   0  0  0  0  0  0  0  0  0  0  0  0
   -0.7324  -19.4119   23.4143 H   0  0  0  0  0  0  0  0  0  0  0  0
   -1.9645  -21.4088   23.6029 H   0  0  0  0  0  0  0  0  0  0  0  0
   -2.4502  -20.1500   24.4631 H   0  0  0  0  0  0  0  0  0  0  0  0
   -5.8106  -22.0228   27.6563 H   0  0  0  0  0  0  0  0  0  0  0  0
   -7.0052  -23.4845   25.5921 H   0  0  0  0  0  0  0  0  0  0  0  0
   -6.7673  -24.0721   23.4024 H   0  0  0  0  0  0  0  0  0  0  0  0
   -5.4972  -23.6174   22.2796 H   0  0  0  0  0  0  0  0  0  0  0  0
   -5.1049  -24.6870   23.6122 H   0  0  0  0  0  0  0  0  0  0  0  0
    4.0235  -13.7141   17.7357 H   0  0  0  0  0  0  0  0  0  0  0  0
    6.5111   -9.8409   18.5809 H   0  0  0  0  0  0  0  0  0  0  0  0
    8.7938   -9.7908   19.8772 H   0  0  0  0  0  0  0  0  0  0  0  0
    8.5421  -11.6211   21.6138 H   0  0  0  0  0  0  0  0  0  0  0  0
  1  2  1  0
  2  3  1  0
  2  4  1  0
  4  5  1  0
  5  6  1  0
  6  7  1  0
  7  8  1  0
  8  9  2  0
  8 10  1  0
 10 11  1  0
 11 12  1  0
 12 13  2  0
 13 14  1  0
 14 15  2  0
 15 16  1  0
 16 17  1  0
  5 18  1  0
 18 19  1  0
 19 20  2  0
 19 21  1  0
 21 22  1  0
 22 23  2  0
 23 24  1  0
 24 25  1  0
 16 12  1  0
 25 21  2  0
  1 26  1  0
  1 27  1  0
  1 28  1  0
  2 29  1  0
  3 30  1  0
  3 31  1  0
  3 32  1  0
  4 33  1  0
  4 34  1  0
  5 35  1  0
  6 36  1  0
  6 37  1  0
  7 38  1  0
 10 39  1  0
 10 40  1  0
 11 41  1  0
 11 42  1  0
 14 43  1  0
 15 44  1  0
 17 45  1  0
 17 46  1  0
 17 47  1  0
 18 48  1  0
 22 49  1  0
 23 50  1  0
 24 51  1  0
M  END
>  <Energy>  (1440) 
1089.7675707112439

>  <compound_id>  (1440) 
10598

>  <target_id>  (1440) 
1

>  <reference_id>  (1440) 
64

>  <inspiration_ids>  (1440) 
[64, 81]

>  <energy_score>  (1440) 
1029.3808575116268

>  <distance_score>  (1440) 
10.160394670482672

>  <path>  (1440) 
/opt/xchem-fragalysis-2/maxwin/BulkDock/SCRATCH/511022/C10598-P64/C10598-P64.minimised.mol

>  <scratch_subdir>  (1440) 
/opt/xchem-fragalysis-2/maxwin/BulkDock/SCRATCH/511022/C10598-P64

>  <fragmenstein_runtime>  (1440) 
44.3482711315155

>  <fragmenstein_outcome>  (1440) 
too moved

>  <fragmenstein_mode>  (1440) 
expansion

>  <fragmenstein_error>  (1440) 


$$$$
C10598-P81
     RDKit          3D

 51 52  0  0  0  0  0  0  0  0999 V2000
    1.7927  -18.9229   16.2457 C   0  0  0  0  0  0  0  0  0  0  0  0
    2.4202  -17.4764   16.2817 C   0  0  0  0  0  0  0  0  0  0  0  0
    3.7733  -17.9239   15.2094 C   0  0  0  0  0  0  0  0  0  0  0  0
    2.6614  -15.7110   17.0431 C   0  0  0  0  0  0  0  0  0  0  0  0
    2.2131  -14.9293   18.5421 C   0  0  0  0  0  0  0  0  0  0  0  0
    0.7651  -16.0540   19.6362 C   0  0  0  0  0  0  0  0  0  0  0  0
   -0.2170  -17.0466   20.7391 N   0  0  0  0  0  0  0  0  0  0  0  0
    0.0853  -18.4880   21.4824 C   0  0  0  0  0  0  0  0  0  0  0  0
    1.0977  -19.1051   21.2718 O   0  0  0  0  0  0  0  0  0  0  0  0
   -1.1959  -19.6126   22.7399 C   0  0  0  0  0  0  0  0  0  0  0  0
   -2.8507  -20.5974   23.6237 C   0  0  0  0  0  0  0  0  0  0  0  0
   -4.6327  -21.1341   24.6931 C   0  0  0  0  0  0  0  0  0  0  0  0
   -4.8381  -21.4767   26.1033 N   0  0  0  0  0  0  0  0  0  0  0  0
   -5.1739  -23.2202   26.4536 C   0  0  0  0  0  0  0  0  0  0  0  0
   -5.7520  -23.6746   24.9961 C   0  0  0  0  0  0  0  0  0  0  0  0
   -5.6858  -22.4296   25.6261 N   0  0  0  0  0  0  0  0  0  0  0  0
   -7.1386  -22.5578   26.8393 C   0  0  0  0  0  0  0  0  0  0  0  0
    3.6813  -13.8252   18.5082 N   0  0  0  0  0  0  0  0  0  0  0  0
    4.4473  -12.8605   19.7680 C   0  0  0  0  0  0  0  0  0  0  0  0
    4.0120  -12.7399   20.8741 O   0  0  0  0  0  0  0  0  0  0  0  0
    6.0060  -11.9877   19.6394 C   0  0  0  0  0  0  0  0  0  0  0  0
    7.1738  -11.9044   20.5546 C   0  0  0  0  0  0  0  0  0  0  0  0
    8.0519  -10.8602   20.3140 C   0  0  0  0  0  0  0  0  0  0  0  0
    7.4716  -10.2516   19.2754 N   0  0  0  0  0  0  0  0  0  0  0  0
    6.2676  -10.8055   18.9824 N   0  0  0  0  0  0  0  0  0  0  0  0
    0.8952  -19.0577   16.8226 H   0  0  0  0  0  0  0  0  0  0  0  0
    1.5839  -19.2427   15.2225 H   0  0  0  0  0  0  0  0  0  0  0  0
    2.4896  -19.6777   16.6397 H   0  0  0  0  0  0  0  0  0  0  0  0
    2.2599  -17.7389   17.3173 H   0  0  0  0  0  0  0  0  0  0  0  0
    3.5869  -17.9432   14.1287 H   0  0  0  0  0  0  0  0  0  0  0  0
    4.6469  -17.2673   15.2900 H   0  0  0  0  0  0  0  0  0  0  0  0
    4.0440  -18.9765   15.3602 H   0  0  0  0  0  0  0  0  0  0  0  0
    3.6664  -15.3535   16.9268 H   0  0  0  0  0  0  0  0  0  0  0  0
    2.0295  -15.0841   16.4691 H   0  0  0  0  0  0  0  0  0  0  0  0
    1.5992  -14.1577   18.0274 H   0  0  0  0  0  0  0  0  0  0  0  0
    0.8524  -17.0105   19.1231 H   0  0  0  0  0  0  0  0  0  0  0  0
    1.2501  -15.7027   20.4896 H   0  0  0  0  0  0  0  0  0  0  0  0
   -1.0720  -16.6694   21.1231 H   0  0  0  0  0  0  0  0  0  0  0  0
   -0.8594  -20.6208   22.5260 H   0  0  0  0  0  0  0  0  0  0  0  0
   -1.6636  -18.9008   22.2152 H   0  0  0  0  0  0  0  0  0  0  0  0
   -2.1281  -21.3834   23.7822 H   0  0  0  0  0  0  0  0  0  0  0  0
   -2.5371  -19.9942   24.4742 H   0  0  0  0  0  0  0  0  0  0  0  0
   -4.5917  -23.7033   27.2549 H   0  0  0  0  0  0  0  0  0  0  0  0
   -6.7168  -23.9110   24.5662 H   0  0  0  0  0  0  0  0  0  0  0  0
   -7.6671  -23.4230   26.4606 H   0  0  0  0  0  0  0  0  0  0  0  0
   -7.6266  -21.6167   27.0910 H   0  0  0  0  0  0  0  0  0  0  0  0
   -6.5420  -22.7172   27.6700 H   0  0  0  0  0  0  0  0  0  0  0  0
    4.2499  -13.8388   17.7294 H   0  0  0  0  0  0  0  0  0  0  0  0
    7.5374  -12.6842   21.1360 H   0  0  0  0  0  0  0  0  0  0  0  0
    9.0098  -10.5815   20.7274 H   0  0  0  0  0  0  0  0  0  0  0  0
    7.7408   -9.4173   18.7691 H   0  0  0  0  0  0  0  0  0  0  0  0
  1  2  1  0
  2  3  1  0
  2  4  1  0
  4  5  1  0
  5  6  1  0
  6  7  1  0
  7  8  1  0
  8  9  2  0
  8 10  1  0
 10 11  1  0
 11 12  1  0
 12 13  2  0
 13 14  1  0
 14 15  2  0
 15 16  1  0
 16 17  1  0
  5 18  1  0
 18 19  1  0
 19 20  2  0
 19 21  1  0
 21 22  1  0
 22 23  2  0
 23 24  1  0
 24 25  1  0
 16 12  1  0
 25 21  2  0
  1 26  1  0
  1 27  1  0
  1 28  1  0
  2 29  1  0
  3 30  1  0
  3 31  1  0
  3 32  1  0
  4 33  1  0
  4 34  1  0
  5 35  1  0
  6 36  1  0
  6 37  1  0
  7 38  1  0
 10 39  1  0
 10 40  1  0
 11 41  1  0
 11 42  1  0
 14 43  1  0
 15 44  1  0
 17 45  1  0
 17 46  1  0
 17 47  1  0
 18 48  1  0
 22 49  1  0
 23 50  1  0
 24 51  1  0
M  END
>  <Energy>  (1441) 
1627.9306958663876

>  <compound_id>  (1441) 
10598

>  <target_id>  (1441) 
1

>  <reference_id>  (1441) 
81

>  <inspiration_ids>  (1441) 
[64, 81]

>  <energy_score>  (1441) 
1567.54398266682

>  <distance_score>  (1441) 
10.026320109908283

>  <path>  (1441) 
/opt/xchem-fragalysis-2/maxwin/BulkDock/SCRATCH/511022/C10598-P81/C10598-P81.minimised.mol

>  <scratch_subdir>  (1441) 
/opt/xchem-fragalysis-2/maxwin/BulkDock/SCRATCH/511022/C10598-P81

>  <fragmenstein_runtime>  (1441) 
39.563934326171875

>  <fragmenstein_outcome>  (1441) 
too moved

>  <fragmenstein_mode>  (1441) 
expansion

>  <fragmenstein_error>  (1441) 


$$$$
C12667-P64
     RDKit          3D

 51 52  0  0  0  0  0  0  0  0999 V2000
   -1.3406   -9.1373   20.2724 C   0  0  0  0  0  0  0  0  0  0  0  0
    0.2031   -8.8652   20.5120 C   0  0  0  0  0  0  0  0  0  0  0  0
    0.4495   -8.0431   21.7518 C   0  0  0  0  0  0  0  0  0  0  0  0
    1.4392   -8.8654   19.1112 C   0  0  0  0  0  0  0  0  0  0  0  0
    2.3601   -9.7208   17.7608 C   0  0  0  0  0  0  0  0  0  0  0  0
    2.9403  -11.7408   17.5507 C   0  0  0  0  0  0  0  0  0  0  0  0
    1.6710  -13.4148   17.9350 N   0  0  0  0  0  0  0  0  0  0  0  0
   -0.2399  -13.5531   17.9755 C   0  0  0  0  0  0  0  0  0  0  0  0
   -0.9882  -12.6416   17.6636 O   0  0  0  0  0  0  0  0  0  0  0  0
   -1.3912  -15.1516   18.7604 C   0  0  0  0  0  0  0  0  0  0  0  0
   -2.7180  -16.5452   18.7949 C   0  0  0  0  0  0  0  0  0  0  0  0
   -3.7458  -17.7538   19.3000 C   0  0  0  0  0  0  0  0  0  0  0  0
   -3.3981  -19.0402   19.3586 N   0  0  0  0  0  0  0  0  0  0  0  0
   -4.4510  -19.8001   18.8524 C   0  0  0  0  0  0  0  0  0  0  0  0
   -5.3402  -18.9727   18.2274 C   0  0  0  0  0  0  0  0  0  0  0  0
   -5.1837  -17.8769   19.0640 N   0  0  0  0  0  0  0  0  0  0  0  0
   -6.2169  -17.9049   20.1191 C   0  0  0  0  0  0  0  0  0  0  0  0
    1.8604   -8.1923   16.7000 N   0  0  0  0  0  0  0  0  0  0  0  0
    2.3540   -7.7176   15.1695 C   0  0  0  0  0  0  0  0  0  0  0  0
    3.0720   -8.2826   14.3723 O   0  0  0  0  0  0  0  0  0  0  0  0
    2.0045   -6.3740   14.6602 C   0  0  0  0  0  0  0  0  0  0  0  0
    0.9675   -5.8813   13.8441 C   0  0  0  0  0  0  0  0  0  0  0  0
    1.1864   -4.6332   13.4064 N   0  0  0  0  0  0  0  0  0  0  0  0
    2.4444   -4.3744   13.7893 N   0  0  0  0  0  0  0  0  0  0  0  0
    2.9953   -5.3985   14.4890 C   0  0  0  0  0  0  0  0  0  0  0  0
   -1.5923  -10.1977   20.4205 H   0  0  0  0  0  0  0  0  0  0  0  0
   -1.9752   -8.6378   21.0122 H   0  0  0  0  0  0  0  0  0  0  0  0
   -1.6506   -8.8716   19.2561 H   0  0  0  0  0  0  0  0  0  0  0  0
    0.4657   -9.8003   21.0446 H   0  0  0  0  0  0  0  0  0  0  0  0
   -0.3242   -8.2012   22.5069 H   0  0  0  0  0  0  0  0  0  0  0  0
    1.3574   -8.3770   22.2032 H   0  0  0  0  0  0  0  0  0  0  0  0
    0.6768   -7.0045   21.6223 H   0  0  0  0  0  0  0  0  0  0  0  0
    1.9036   -7.9196   19.0761 H   0  0  0  0  0  0  0  0  0  0  0  0
    2.0050   -9.4281   19.7666 H   0  0  0  0  0  0  0  0  0  0  0  0
    3.3507   -9.3129   17.8779 H   0  0  0  0  0  0  0  0  0  0  0  0
    3.7916  -12.2012   18.0452 H   0  0  0  0  0  0  0  0  0  0  0  0
    3.2132  -11.6496   16.5022 H   0  0  0  0  0  0  0  0  0  0  0  0
    2.0828  -14.3231   18.1539 H   0  0  0  0  0  0  0  0  0  0  0  0
   -1.9427  -14.6143   19.5132 H   0  0  0  0  0  0  0  0  0  0  0  0
   -0.8151  -15.7153   19.5205 H   0  0  0  0  0  0  0  0  0  0  0  0
   -1.9349  -17.3265   18.8019 H   0  0  0  0  0  0  0  0  0  0  0  0
   -3.4085  -16.4372   17.9304 H   0  0  0  0  0  0  0  0  0  0  0  0
   -4.4668  -20.8813   18.8712 H   0  0  0  0  0  0  0  0  0  0  0  0
   -6.2607  -19.1748   17.6981 H   0  0  0  0  0  0  0  0  0  0  0  0
   -5.8016  -17.5135   21.0237 H   0  0  0  0  0  0  0  0  0  0  0  0
   -7.0881  -17.3497   19.7781 H   0  0  0  0  0  0  0  0  0  0  0  0
   -6.5305  -18.9361   20.3194 H   0  0  0  0  0  0  0  0  0  0  0  0
    1.2228   -7.5604   17.0467 H   0  0  0  0  0  0  0  0  0  0  0  0
    0.0536   -6.3848   13.5548 H   0  0  0  0  0  0  0  0  0  0  0  0
    2.8696   -3.4990   13.4984 H   0  0  0  0  0  0  0  0  0  0  0  0
    4.0321   -5.3784   14.7929 H   0  0  0  0  0  0  0  0  0  0  0  0
  1  2  1  0
  2  3  1  0
  2  4  1  0
  4  5  1  0
  5  6  1  0
  6  7  1  0
  7  8  1  0
  8  9  2  0
  8 10  1  0
 10 11  1  0
 11 12  1  0
 12 13  2  0
 13 14  1  0
 14 15  2  0
 15 16  1  0
 16 17  1  0
  5 18  1  0
 18 19  1  0
 19 20  2  0
 19 21  1  0
 21 22  1  0
 22 23  2  0
 23 24  1  0
 24 25  1  0
 16 12  1  0
 25 21  2  0
  1 26  1  0
  1 27  1  0
  1 28  1  0
  2 29  1  0
  3 30  1  0
  3 31  1  0
  3 32  1  0
  4 33  1  0
  4 34  1  0
  5 35  1  0
  6 36  1  0
  6 37  1  0
  7 38  1  0
 10 39  1  0
 10 40  1  0
 11 41  1  0
 11 42  1  0
 14 43  1  0
 15 44  1  0
 17 45  1  0
 17 46  1  0
 17 47  1  0
 18 48  1  0
 22 49  1  0
 24 50  1  0
 25 51  1  0
M  END
>  <Energy>  (1442) 
874.71156039709604

>  <compound_id>  (1442) 
12667

>  <target_id>  (1442) 
1

>  <reference_id>  (1442) 
64

>  <inspiration_ids>  (1442) 
[64, 81]

>  <energy_score>  (1442) 
840.1196486751613

>  <distance_score>  (1442) 
11.921530177116182

>  <path>  (1442) 
/opt/xchem-fragalysis-2/maxwin/BulkDock/SCRATCH/511022/C12667-P64/C12667-P64.minimised.mol

>  <scratch_subdir>  (1442) 
/opt/xchem-fragalysis-2/maxwin/BulkDock/SCRATCH/511022/C12667-P64

>  <fragmenstein_runtime>  (1442) 
32.409735918045044

>  <fragmenstein_outcome>  (1442) 
too moved

>  <fragmenstein_mode>  (1442) 
expansion

>  <fragmenstein_error>  (1442) 


$$$$
C12667-P81
     RDKit          3D

 51 52  0  0  0  0  0  0  0  0999 V2000
   -2.9834   -8.5969   20.0525 C   0  0  0  0  0  0  0  0  0  0  0  0
   -2.8701   -9.6866   21.1372 C   0  0  0  0  0  0  0  0  0  0  0  0
   -2.9552   -8.9243   22.4034 C   0  0  0  0  0  0  0  0  0  0  0  0
   -1.9536  -10.7882   20.8626 C   0  0  0  0  0  0  0  0  0  0  0  0
   -1.5647  -10.4658   19.5263 C   0  0  0  0  0  0  0  0  0  0  0  0
   -1.7736  -11.9911   18.2964 C   0  0  0  0  0  0  0  0  0  0  0  0
   -1.9123  -13.8496   18.1680 N   0  0  0  0  0  0  0  0  0  0  0  0
   -2.1382  -15.0729   19.4040 C   0  0  0  0  0  0  0  0  0  0  0  0
   -2.1490  -14.8494   20.5779 O   0  0  0  0  0  0  0  0  0  0  0  0
   -2.5415  -16.7901   19.1167 C   0  0  0  0  0  0  0  0  0  0  0  0
   -3.8526  -17.4659   18.3199 C   0  0  0  0  0  0  0  0  0  0  0  0
   -4.5466  -18.7569   18.7662 C   0  0  0  0  0  0  0  0  0  0  0  0
   -4.0486  -19.7402   19.4837 N   0  0  0  0  0  0  0  0  0  0  0  0
   -5.0270  -20.7054   19.5985 C   0  0  0  0  0  0  0  0  0  0  0  0
   -6.1074  -20.3733   18.8308 C   0  0  0  0  0  0  0  0  0  0  0  0
   -5.7409  -19.2063   18.2128 N   0  0  0  0  0  0  0  0  0  0  0  0
   -6.3781  -18.6860   17.0257 C   0  0  0  0  0  0  0  0  0  0  0  0
   -0.5779   -8.8571   19.9674 N   0  0  0  0  0  0  0  0  0  0  0  0
    0.0290   -8.3192   21.4037 C   0  0  0  0  0  0  0  0  0  0  0  0
   -0.0817   -8.8369   22.4609 O   0  0  0  0  0  0  0  0  0  0  0  0
    0.8431   -6.7492   21.5891 C   0  0  0  0  0  0  0  0  0  0  0  0
    0.7353   -5.6891   22.7671 C   0  0  0  0  0  0  0  0  0  0  0  0
    1.1846   -4.4439   22.4825 N   0  0  0  0  0  0  0  0  0  0  0  0
    1.5731   -4.5246   21.2075 N   0  0  0  0  0  0  0  0  0  0  0  0
    1.5393   -5.8078   20.7170 C   0  0  0  0  0  0  0  0  0  0  0  0
   -3.6365   -9.0007   19.3433 H   0  0  0  0  0  0  0  0  0  0  0  0
   -3.3230   -7.6830   20.4987 H   0  0  0  0  0  0  0  0  0  0  0  0
   -2.3626   -8.3278   19.2016 H   0  0  0  0  0  0  0  0  0  0  0  0
   -3.7469  -10.3333   21.1569 H   0  0  0  0  0  0  0  0  0  0  0  0
   -3.2777   -9.5037   23.2386 H   0  0  0  0  0  0  0  0  0  0  0  0
   -2.0766   -8.3800   22.6797 H   0  0  0  0  0  0  0  0  0  0  0  0
   -3.7500   -8.1762   22.3182 H   0  0  0  0  0  0  0  0  0  0  0  0
   -1.0950  -10.7838   21.5179 H   0  0  0  0  0  0  0  0  0  0  0  0
   -2.4243  -11.7558   20.8012 H   0  0  0  0  0  0  0  0  0  0  0  0
   -2.1780   -9.9923   18.7622 H   0  0  0  0  0  0  0  0  0  0  0  0
   -0.7680  -12.1966   18.4082 H   0  0  0  0  0  0  0  0  0  0  0  0
   -2.7706  -12.0406   18.7018 H   0  0  0  0  0  0  0  0  0  0  0  0
   -2.0267  -14.2779   17.2504 H   0  0  0  0  0  0  0  0  0  0  0  0
   -1.6641  -17.4372   19.0420 H   0  0  0  0  0  0  0  0  0  0  0  0
   -2.8137  -17.0241   20.1427 H   0  0  0  0  0  0  0  0  0  0  0  0
   -3.6007  -17.7788   17.3092 H   0  0  0  0  0  0  0  0  0  0  0  0
   -4.5878  -16.7108   18.1035 H   0  0  0  0  0  0  0  0  0  0  0  0
   -4.8852  -21.5785   20.2215 H   0  0  0  0  0  0  0  0  0  0  0  0
   -7.0392  -20.8838   18.6327 H   0  0  0  0  0  0  0  0  0  0  0  0
   -7.1293  -19.3985   16.6737 H   0  0  0  0  0  0  0  0  0  0  0  0
   -6.8576  -17.7383   17.2616 H   0  0  0  0  0  0  0  0  0  0  0  0
   -5.6219  -18.5513   16.2483 H   0  0  0  0  0  0  0  0  0  0  0  0
   -0.2558   -8.2599   19.2273 H   0  0  0  0  0  0  0  0  0  0  0  0
    0.3497   -5.8970   23.7637 H   0  0  0  0  0  0  0  0  0  0  0  0
    2.0078   -3.7123   20.7862 H   0  0  0  0  0  0  0  0  0  0  0  0
    2.0844   -5.9826   19.8299 H   0  0  0  0  0  0  0  0  0  0  0  0
  1  2  1  0
  2  3  1  0
  2  4  1  0
  4  5  1  0
  5  6  1  0
  6  7  1  0
  7  8  1  0
  8  9  2  0
  8 10  1  0
 10 11  1  0
 11 12  1  0
 12 13  2  0
 13 14  1  0
 14 15  2  0
 15 16  1  0
 16 17  1  0
  5 18  1  0
 18 19  1  0
 19 20  2  0
 19 21  1  0
 21 22  1  0
 22 23  2  0
 23 24  1  0
 24 25  1  0
 16 12  1  0
 25 21  2  0
  1 26  1  0
  1 27  1  0
  1 28  1  0
  2 29  1  0
  3 30  1  0
  3 31  1  0
  3 32  1  0
  4 33  1  0
  4 34  1  0
  5 35  1  0
  6 36  1  0
  6 37  1  0
  7 38  1  0
 10 39  1  0
 10 40  1  0
 11 41  1  0
 11 42  1  0
 14 43  1  0
 15 44  1  0
 17 45  1  0
 17 46  1  0
 17 47  1  0
 18 48  1  0
 22 49  1  0
 24 50  1  0
 25 51  1  0
M  END
>  <Energy>  (1443) 
515.59112611420744

>  <compound_id>  (1443) 
12667

>  <target_id>  (1443) 
1

>  <reference_id>  (1443) 
81

>  <inspiration_ids>  (1443) 
[64, 81]

>  <energy_score>  (1443) 
480.9992143922783

>  <distance_score>  (1443) 
12.632860378132497

>  <path>  (1443) 
/opt/xchem-fragalysis-2/maxwin/BulkDock/SCRATCH/511022/C12667-P81/C12667-P81.minimised.mol

>  <scratch_subdir>  (1443) 
/opt/xchem-fragalysis-2/maxwin/BulkDock/SCRATCH/511022/C12667-P81

>  <fragmenstein_runtime>  (1443) 
46.07931208610535

>  <fragmenstein_outcome>  (1443) 
too moved

>  <fragmenstein_mode>  (1443) 
expansion

>  <fragmenstein_error>  (1443) 


$$$$
C10599-P64
     RDKit          3D

 46 48  0  0  0  0  0  0  0  0999 V2000
   -0.0328  -22.6150   23.9291 C   0  0  0  0  0  0  0  0  0  0  0  0
   -0.5536  -21.8816   22.7705 C   0  0  0  0  0  0  0  0  0  0  0  0
    0.3497  -22.9985   21.3624 C   0  0  0  0  0  0  0  0  0  0  0  0
   -1.8094  -20.2357   22.4523 C   0  0  0  0  0  0  0  0  0  0  0  0
   -1.0451  -18.4307   21.7574 C   0  0  0  0  0  0  0  0  0  0  0  0
   -0.5452  -16.6055   20.6038 C   0  0  0  0  0  0  0  0  0  0  0  0
   -1.5043  -16.0880   20.0028 O   0  0  0  0  0  0  0  0  0  0  0  0
    1.2532  -15.8749   20.6277 N   0  0  0  0  0  0  0  0  0  0  0  0
    2.2248  -14.0936   19.9052 C   0  0  0  0  0  0  0  0  0  0  0  0
    2.6433  -12.5356   21.3639 C   0  0  0  0  0  0  0  0  0  0  0  0
    1.1419  -10.7827   20.7756 C   0  0  0  0  0  0  0  0  0  0  0  0
    2.3490  -10.7187   18.9161 N   0  0  0  0  0  0  0  0  0  0  0  0
    2.5640   -9.4132   18.0200 C   0  0  0  0  0  0  0  0  0  0  0  0
    3.3352   -9.3627   16.8105 C   0  0  0  0  0  0  0  0  0  0  0  0
    3.4404   -8.0309   16.4850 C   0  0  0  0  0  0  0  0  0  0  0  0
    2.7376   -7.3720   17.4468 N   0  0  0  0  0  0  0  0  0  0  0  0
    2.2002   -8.1709   18.3887 N   0  0  0  0  0  0  0  0  0  0  0  0
    3.2616  -12.5203   18.5570 C   0  0  0  0  0  0  0  0  0  0  0  0
    4.3550  -12.7262   18.0104 O   0  0  0  0  0  0  0  0  0  0  0  0
   -1.5251  -19.3820   23.5062 N   0  0  0  0  0  0  0  0  0  0  0  0
   -2.9883  -20.4610   23.9430 C   0  0  0  0  0  0  0  0  0  0  0  0
   -3.9215  -19.9407   24.8332 C   0  0  0  0  0  0  0  0  0  0  0  0
   -2.7383  -19.4318   25.9231 N   0  0  0  0  0  0  0  0  0  0  0  0
   -1.9294  -18.6981   25.2854 C   0  0  0  0  0  0  0  0  0  0  0  0
   -0.9591  -22.3112   24.2717 H   0  0  0  0  0  0  0  0  0  0  0  0
    0.2903  -23.5933   23.6308 H   0  0  0  0  0  0  0  0  0  0  0  0
    0.0805  -23.0586   24.9245 H   0  0  0  0  0  0  0  0  0  0  0  0
    0.2162  -21.1885   23.0655 H   0  0  0  0  0  0  0  0  0  0  0  0
    0.7872  -22.5850   20.4372 H   0  0  0  0  0  0  0  0  0  0  0  0
    0.2260  -23.9795   20.8697 H   0  0  0  0  0  0  0  0  0  0  0  0
    1.0103  -23.4245   22.0505 H   0  0  0  0  0  0  0  0  0  0  0  0
   -2.7865  -20.8158   22.2813 H   0  0  0  0  0  0  0  0  0  0  0  0
   -2.5864  -20.6354   21.2149 H   0  0  0  0  0  0  0  0  0  0  0  0
   -0.0347  -18.4391   22.0561 H   0  0  0  0  0  0  0  0  0  0  0  0
    1.7868  -16.4345   21.0475 H   0  0  0  0  0  0  0  0  0  0  0  0
    2.8061  -14.3825   20.7295 H   0  0  0  0  0  0  0  0  0  0  0  0
    3.7702  -12.5027   21.0667 H   0  0  0  0  0  0  0  0  0  0  0  0
    2.8978  -12.5421   22.4995 H   0  0  0  0  0  0  0  0  0  0  0  0
    0.0239  -10.7584   20.9753 H   0  0  0  0  0  0  0  0  0  0  0  0
    1.3942   -9.6989   21.1059 H   0  0  0  0  0  0  0  0  0  0  0  0
    3.7926  -10.2075   16.3161 H   0  0  0  0  0  0  0  0  0  0  0  0
    3.9389   -7.5138   15.6791 H   0  0  0  0  0  0  0  0  0  0  0  0
    2.5742   -6.3751   17.5254 H   0  0  0  0  0  0  0  0  0  0  0  0
   -2.3479  -21.2820   24.0193 H   0  0  0  0  0  0  0  0  0  0  0  0
   -4.7851  -20.3975   25.2914 H   0  0  0  0  0  0  0  0  0  0  0  0
   -1.1308  -18.1482   25.8002 H   0  0  0  0  0  0  0  0  0  0  0  0
  1  2  1  0
  2  3  1  0
  2  4  1  0
  4  5  1  0
  5  6  1  0
  6  7  2  0
  6  8  1  0
  8  9  1  0
  9 10  1  0
 10 11  1  0
 11 12  1  0
 12 13  1  0
 13 14  1  0
 14 15  2  0
 15 16  1  0
 16 17  1  0
 12 18  1  0
 18 19  2  0
  5 20  1  0
 20 21  1  0
 21 22  2  0
 22 23  1  0
 23 24  2  0
 18  9  1  0
 24 20  1  0
 17 13  2  0
  1 25  1  0
  1 26  1  0
  1 27  1  0
  2 28  1  0
  3 29  1  0
  3 30  1  0
  3 31  1  0
  4 32  1  0
  4 33  1  0
  5 34  1  0
  8 35  1  0
  9 36  1  0
 10 37  1  0
 10 38  1  0
 11 39  1  0
 11 40  1  0
 14 41  1  0
 15 42  1  0
 16 43  1  0
 21 44  1  0
 22 45  1  0
 24 46  1  0
M  END
>  <Energy>  (1444) 
2455.5883300936898

>  <compound_id>  (1444) 
10599

>  <target_id>  (1444) 
1

>  <reference_id>  (1444) 
64

>  <inspiration_ids>  (1444) 
[64, 81]

>  <energy_score>  (1444) 
2389.8267932826648

>  <distance_score>  (1444) 
11.525245007005047

>  <path>  (1444) 
/opt/xchem-fragalysis-2/maxwin/BulkDock/SCRATCH/511022/C10599-P64/C10599-P64.minimised.mol

>  <scratch_subdir>  (1444) 
/opt/xchem-fragalysis-2/maxwin/BulkDock/SCRATCH/511022/C10599-P64

>  <fragmenstein_runtime>  (1444) 
27.592817068099976

>  <fragmenstein_outcome>  (1444) 
too moved

>  <fragmenstein_mode>  (1444) 
expansion

>  <fragmenstein_error>  (1444) 


$$$$
C10599-P81
     RDKit          3D

 46 48  0  0  0  0  0  0  0  0999 V2000
    0.0404  -23.1441   23.7505 C   0  0  0  0  0  0  0  0  0  0  0  0
   -0.0381  -22.2082   22.4561 C   0  0  0  0  0  0  0  0  0  0  0  0
    0.4969  -22.9800   21.2022 C   0  0  0  0  0  0  0  0  0  0  0  0
   -0.4881  -20.8497   22.8958 C   0  0  0  0  0  0  0  0  0  0  0  0
   -1.4833  -19.7653   22.4777 C   0  0  0  0  0  0  0  0  0  0  0  0
   -0.2482  -18.4113   21.4681 C   0  0  0  0  0  0  0  0  0  0  0  0
    0.7828  -18.8667   21.3496 O   0  0  0  0  0  0  0  0  0  0  0  0
   -0.3278  -16.8718   20.6176 N   0  0  0  0  0  0  0  0  0  0  0  0
    0.9296  -15.8894   19.7465 C   0  0  0  0  0  0  0  0  0  0  0  0
    2.0158  -15.1792   18.1795 C   0  0  0  0  0  0  0  0  0  0  0  0
    3.4377  -14.9916   18.0665 C   0  0  0  0  0  0  0  0  0  0  0  0
    3.3929  -13.8410   18.6768 N   0  0  0  0  0  0  0  0  0  0  0  0
    4.7096  -13.0570   18.5778 C   0  0  0  0  0  0  0  0  0  0  0  0
    5.6328  -12.6315   19.5611 C   0  0  0  0  0  0  0  0  0  0  0  0
    6.6498  -11.8968   18.9944 C   0  0  0  0  0  0  0  0  0  0  0  0
    6.2828  -11.8349   17.6958 N   0  0  0  0  0  0  0  0  0  0  0  0
    5.2713  -12.6636   17.3972 N   0  0  0  0  0  0  0  0  0  0  0  0
    2.3769  -14.5414   20.0268 C   0  0  0  0  0  0  0  0  0  0  0  0
    2.8324  -14.3899   21.1951 O   0  0  0  0  0  0  0  0  0  0  0  0
   -2.7817  -20.3823   23.7613 N   0  0  0  0  0  0  0  0  0  0  0  0
   -2.8131  -19.4738   25.2820 C   0  0  0  0  0  0  0  0  0  0  0  0
   -4.3566  -19.8628   24.9400 C   0  0  0  0  0  0  0  0  0  0  0  0
   -4.7078  -20.9358   25.4339 N   0  0  0  0  0  0  0  0  0  0  0  0
   -4.3870  -21.0346   24.2151 C   0  0  0  0  0  0  0  0  0  0  0  0
   -0.7864  -22.8817   24.2974 H   0  0  0  0  0  0  0  0  0  0  0  0
    0.2778  -24.2045   23.5421 H   0  0  0  0  0  0  0  0  0  0  0  0
    0.5208  -23.2298   24.7075 H   0  0  0  0  0  0  0  0  0  0  0  0
   -0.9851  -22.1647   22.0900 H   0  0  0  0  0  0  0  0  0  0  0  0
    0.7388  -22.4595   20.2891 H   0  0  0  0  0  0  0  0  0  0  0  0
    1.0820  -23.6345   21.7905 H   0  0  0  0  0  0  0  0  0  0  0  0
    0.3381  -23.9367   20.6914 H   0  0  0  0  0  0  0  0  0  0  0  0
    0.2873  -20.1860   23.1773 H   0  0  0  0  0  0  0  0  0  0  0  0
   -1.1430  -21.3072   23.5691 H   0  0  0  0  0  0  0  0  0  0  0  0
   -2.0195  -20.4573   21.8213 H   0  0  0  0  0  0  0  0  0  0  0  0
   -1.2355  -16.4650   20.8249 H   0  0  0  0  0  0  0  0  0  0  0  0
    1.3211  -16.4500   20.4575 H   0  0  0  0  0  0  0  0  0  0  0  0
    1.4825  -14.3907   17.6084 H   0  0  0  0  0  0  0  0  0  0  0  0
    2.4325  -16.0752   17.6026 H   0  0  0  0  0  0  0  0  0  0  0  0
    3.6288  -15.1054   17.0639 H   0  0  0  0  0  0  0  0  0  0  0  0
    4.2368  -15.6082   18.4536 H   0  0  0  0  0  0  0  0  0  0  0  0
    5.4584  -12.8074   20.5757 H   0  0  0  0  0  0  0  0  0  0  0  0
    7.4914  -11.3596   19.4007 H   0  0  0  0  0  0  0  0  0  0  0  0
    6.7030  -11.3046   16.9423 H   0  0  0  0  0  0  0  0  0  0  0  0
   -2.1726  -18.5899   25.3662 H   0  0  0  0  0  0  0  0  0  0  0  0
   -5.2240  -19.2752   24.5969 H   0  0  0  0  0  0  0  0  0  0  0  0
   -5.2582  -21.3272   23.5127 H   0  0  0  0  0  0  0  0  0  0  0  0
  1  2  1  0
  2  3  1  0
  2  4  1  0
  4  5  1  0
  5  6  1  0
  6  7  2  0
  6  8  1  0
  8  9  1  0
  9 10  1  0
 10 11  1  0
 11 12  1  0
 12 13  1  0
 13 14  1  0
 14 15  2  0
 15 16  1  0
 16 17  1  0
 12 18  1  0
 18 19  2  0
  5 20  1  0
 20 21  1  0
 21 22  2  0
 22 23  1  0
 23 24  2  0
 18  9  1  0
 24 20  1  0
 17 13  2  0
  1 25  1  0
  1 26  1  0
  1 27  1  0
  2 28  1  0
  3 29  1  0
  3 30  1  0
  3 31  1  0
  4 32  1  0
  4 33  1  0
  5 34  1  0
  8 35  1  0
  9 36  1  0
 10 37  1  0
 10 38  1  0
 11 39  1  0
 11 40  1  0
 14 41  1  0
 15 42  1  0
 16 43  1  0
 21 44  1  0
 22 45  1  0
 24 46  1  0
M  END
>  <Energy>  (1445) 
1202.9615231798221

>  <compound_id>  (1445) 
10599

>  <target_id>  (1445) 
1

>  <reference_id>  (1445) 
81

>  <inspiration_ids>  (1445) 
[64, 81]

>  <energy_score>  (1445) 
1137.1999863687838

>  <distance_score>  (1445) 
11.790326191526697

>  <path>  (1445) 
/opt/xchem-fragalysis-2/maxwin/BulkDock/SCRATCH/511022/C10599-P81/C10599-P81.minimised.mol

>  <scratch_subdir>  (1445) 
/opt/xchem-fragalysis-2/maxwin/BulkDock/SCRATCH/511022/C10599-P81

>  <fragmenstein_runtime>  (1445) 
36.82356667518616

>  <fragmenstein_outcome>  (1445) 
too moved

>  <fragmenstein_mode>  (1445) 
expansion

>  <fragmenstein_error>  (1445) 


$$$$
C10600-P64
     RDKit          3D

 39 40  0  0  0  0  0  0  0  0999 V2000
    4.3668  -17.8968   30.8281 C   0  0  0  0  0  0  0  0  0  0  0  0
    4.1302  -17.5026   29.1832 C   0  0  0  0  0  0  0  0  0  0  0  0
    3.4097  -16.4170   27.7979 C   0  0  0  0  0  0  0  0  0  0  0  0
    3.8449  -14.6434   27.1458 C   0  0  0  0  0  0  0  0  0  0  0  0
    5.0582  -13.4956   26.5848 N   0  0  0  0  0  0  0  0  0  0  0  0
    5.8399  -12.4505   27.3226 C   0  0  0  0  0  0  0  0  0  0  0  0
    5.7714  -12.0866   28.4657 O   0  0  0  0  0  0  0  0  0  0  0  0
    6.8382  -11.7218   26.4143 C   0  0  0  0  0  0  0  0  0  0  0  0
    7.5695  -10.5265   26.7280 C   0  0  0  0  0  0  0  0  0  0  0  0
    8.1907  -10.1241   25.5682 C   0  0  0  0  0  0  0  0  0  0  0  0
    7.8544  -11.0579   24.6423 N   0  0  0  0  0  0  0  0  0  0  0  0
    7.0710  -12.0502   25.1230 N   0  0  0  0  0  0  0  0  0  0  0  0
    2.0574  -17.0290   27.5076 N   0  0  0  0  0  0  0  0  0  0  0  0
    0.8555  -17.0340   28.2556 C   0  0  0  0  0  0  0  0  0  0  0  0
    0.5828  -16.4861   29.2742 O   0  0  0  0  0  0  0  0  0  0  0  0
   -0.5739  -18.0000   27.3559 C   0  0  0  0  0  0  0  0  0  0  0  0
   -1.5539  -19.3830   27.8801 C   0  0  0  0  0  0  0  0  0  0  0  0
   -1.6191  -20.2167   29.0005 C   0  0  0  0  0  0  0  0  0  0  0  0
   -2.5674  -21.2054   28.8583 N   0  0  0  0  0  0  0  0  0  0  0  0
   -3.1270  -20.9818   27.6983 C   0  0  0  0  0  0  0  0  0  0  0  0
   -2.5187  -19.9394   27.0596 N   0  0  0  0  0  0  0  0  0  0  0  0
    4.9502  -18.8265   30.8796 H   0  0  0  0  0  0  0  0  0  0  0  0
    3.4370  -18.1423   31.3704 H   0  0  0  0  0  0  0  0  0  0  0  0
    4.8525  -17.1322   31.4388 H   0  0  0  0  0  0  0  0  0  0  0  0
    4.3645  -18.4393   28.6633 H   0  0  0  0  0  0  0  0  0  0  0  0
    3.1898  -17.5185   29.6791 H   0  0  0  0  0  0  0  0  0  0  0  0
    3.6586  -16.8522   26.8778 H   0  0  0  0  0  0  0  0  0  0  0  0
    4.4387  -14.6541   28.0008 H   0  0  0  0  0  0  0  0  0  0  0  0
    4.0956  -15.0791   26.1809 H   0  0  0  0  0  0  0  0  0  0  0  0
    5.3179  -13.4813   25.6253 H   0  0  0  0  0  0  0  0  0  0  0  0
    7.5765  -10.0180   27.6828 H   0  0  0  0  0  0  0  0  0  0  0  0
    8.8109   -9.2723   25.3298 H   0  0  0  0  0  0  0  0  0  0  0  0
    8.1202  -11.0863   23.6648 H   0  0  0  0  0  0  0  0  0  0  0  0
    1.9677  -17.6642   26.7514 H   0  0  0  0  0  0  0  0  0  0  0  0
   -0.2782  -18.3100   26.3663 H   0  0  0  0  0  0  0  0  0  0  0  0
   -1.4231  -17.3144   27.2720 H   0  0  0  0  0  0  0  0  0  0  0  0
   -1.0252  -20.1558   29.9052 H   0  0  0  0  0  0  0  0  0  0  0  0
   -3.9438  -21.5367   27.2568 H   0  0  0  0  0  0  0  0  0  0  0  0
   -2.7746  -19.6016   26.1357 H   0  0  0  0  0  0  0  0  0  0  0  0
  1  2  1  0
  2  3  1  0
  3  4  1  0
  4  5  1  0
  5  6  1  0
  6  7  2  0
  6  8  1  0
  8  9  1  0
  9 10  2  0
 10 11  1  0
 11 12  1  0
  3 13  1  0
 13 14  1  0
 14 15  2  0
 14 16  1  0
 16 17  1  0
 17 18  2  0
 18 19  1  0
 19 20  2  0
 20 21  1  0
 12  8  2  0
 21 17  1  0
  1 22  1  0
  1 23  1  0
  1 24  1  0
  2 25  1  0
  2 26  1  0
  3 27  1  0
  4 28  1  0
  4 29  1  0
  5 30  1  0
  9 31  1  0
 10 32  1  0
 11 33  1  0
 13 34  1  0
 16 35  1  0
 16 36  1  0
 18 37  1  0
 20 38  1  0
 21 39  1  0
M  END
>  <Energy>  (1446) 
393.65543624810908

>  <compound_id>  (1446) 
10600

>  <target_id>  (1446) 
1

>  <reference_id>  (1446) 
64

>  <inspiration_ids>  (1446) 
[64, 81]

>  <energy_score>  (1446) 
327.7699979139686

>  <distance_score>  (1446) 
13.280657310263495

>  <path>  (1446) 
/opt/xchem-fragalysis-2/maxwin/BulkDock/SCRATCH/511022/C10600-P64/C10600-P64.minimised.mol

>  <scratch_subdir>  (1446) 
/opt/xchem-fragalysis-2/maxwin/BulkDock/SCRATCH/511022/C10600-P64

>  <fragmenstein_runtime>  (1446) 
22.336486339569092

>  <fragmenstein_outcome>  (1446) 
too moved

>  <fragmenstein_mode>  (1446) 
expansion

>  <fragmenstein_error>  (1446) 


$$$$
C10600-P81
     RDKit          3D

 39 40  0  0  0  0  0  0  0  0999 V2000
    0.8457  -11.9300   26.4835 C   0  0  0  0  0  0  0  0  0  0  0  0
    0.7878  -13.4215   26.0035 C   0  0  0  0  0  0  0  0  0  0  0  0
    0.2167  -14.2629   24.2804 C   0  0  0  0  0  0  0  0  0  0  0  0
    2.0139  -13.3124   23.8339 C   0  0  0  0  0  0  0  0  0  0  0  0
    3.3306  -13.0065   24.1188 N   0  0  0  0  0  0  0  0  0  0  0  0
    4.3423  -13.6053   25.2252 C   0  0  0  0  0  0  0  0  0  0  0  0
    4.1865  -14.5175   25.9783 O   0  0  0  0  0  0  0  0  0  0  0  0
    5.9099  -12.5776   25.3986 C   0  0  0  0  0  0  0  0  0  0  0  0
    6.9995  -12.5380   26.3433 C   0  0  0  0  0  0  0  0  0  0  0  0
    7.9047  -11.5532   25.9917 C   0  0  0  0  0  0  0  0  0  0  0  0
    7.4034  -11.0047   24.8773 N   0  0  0  0  0  0  0  0  0  0  0  0
    6.3024  -11.6220   24.4701 N   0  0  0  0  0  0  0  0  0  0  0  0
   -1.2623  -15.7026   24.4812 N   0  0  0  0  0  0  0  0  0  0  0  0
   -1.1804  -17.5243   25.4588 C   0  0  0  0  0  0  0  0  0  0  0  0
   -0.2111  -18.0768   25.9879 O   0  0  0  0  0  0  0  0  0  0  0  0
   -2.3038  -18.2487   25.7226 C   0  0  0  0  0  0  0  0  0  0  0  0
   -2.6571  -19.9090   26.2551 C   0  0  0  0  0  0  0  0  0  0  0  0
   -2.5806  -20.5708   27.4774 C   0  0  0  0  0  0  0  0  0  0  0  0
   -3.2537  -21.7768   27.4455 N   0  0  0  0  0  0  0  0  0  0  0  0
   -3.8116  -21.8397   26.2605 C   0  0  0  0  0  0  0  0  0  0  0  0
   -3.4668  -20.7631   25.4958 N   0  0  0  0  0  0  0  0  0  0  0  0
    1.5566  -11.5775   27.2012 H   0  0  0  0  0  0  0  0  0  0  0  0
    1.2543  -11.5051   25.6374 H   0  0  0  0  0  0  0  0  0  0  0  0
    0.2957  -11.1381   26.9855 H   0  0  0  0  0  0  0  0  0  0  0  0
    1.1000  -14.2507   26.5786 H   0  0  0  0  0  0  0  0  0  0  0  0
    1.8489  -13.4901   25.9511 H   0  0  0  0  0  0  0  0  0  0  0  0
   -0.3337  -13.8475   23.4306 H   0  0  0  0  0  0  0  0  0  0  0  0
    1.8325  -12.5769   24.5410 H   0  0  0  0  0  0  0  0  0  0  0  0
    1.9088  -12.2994   23.2886 H   0  0  0  0  0  0  0  0  0  0  0  0
    3.7790  -12.3133   23.6055 H   0  0  0  0  0  0  0  0  0  0  0  0
    7.2031  -13.1694   27.1717 H   0  0  0  0  0  0  0  0  0  0  0  0
    8.8310  -11.2296   26.4442 H   0  0  0  0  0  0  0  0  0  0  0  0
    7.7452  -10.2179   24.3321 H   0  0  0  0  0  0  0  0  0  0  0  0
   -2.2104  -15.4642   24.2188 H   0  0  0  0  0  0  0  0  0  0  0  0
   -2.7293  -17.3233   26.2192 H   0  0  0  0  0  0  0  0  0  0  0  0
   -1.9798  -18.3275   26.8094 H   0  0  0  0  0  0  0  0  0  0  0  0
   -2.0958  -20.2376   28.3851 H   0  0  0  0  0  0  0  0  0  0  0  0
   -4.4648  -22.6221   25.8989 H   0  0  0  0  0  0  0  0  0  0  0  0
   -3.8572  -20.5332   24.5947 H   0  0  0  0  0  0  0  0  0  0  0  0
  1  2  1  0
  2  3  1  0
  3  4  1  0
  4  5  1  0
  5  6  1  0
  6  7  2  0
  6  8  1  0
  8  9  1  0
  9 10  2  0
 10 11  1  0
 11 12  1  0
  3 13  1  0
 13 14  1  0
 14 15  2  0
 14 16  1  0
 16 17  1  0
 17 18  2  0
 18 19  1  0
 19 20  2  0
 20 21  1  0
 12  8  2  0
 21 17  1  0
  1 22  1  0
  1 23  1  0
  1 24  1  0
  2 25  1  0
  2 26  1  0
  3 27  1  0
  4 28  1  0
  4 29  1  0
  5 30  1  0
  9 31  1  0
 10 32  1  0
 11 33  1  0
 13 34  1  0
 16 35  1  0
 16 36  1  0
 18 37  1  0
 20 38  1  0
 21 39  1  0
M  END
>  <Energy>  (1447) 
871.86785245416866

>  <compound_id>  (1447) 
10600

>  <target_id>  (1447) 
1

>  <reference_id>  (1447) 
81

>  <inspiration_ids>  (1447) 
[64, 81]

>  <energy_score>  (1447) 
805.9824141200252

>  <distance_score>  (1447) 
13.080660834041353

>  <path>  (1447) 
/opt/xchem-fragalysis-2/maxwin/BulkDock/SCRATCH/511022/C10600-P81/C10600-P81.minimised.mol

>  <scratch_subdir>  (1447) 
/opt/xchem-fragalysis-2/maxwin/BulkDock/SCRATCH/511022/C10600-P81

>  <fragmenstein_runtime>  (1447) 
24.750081539154053

>  <fragmenstein_outcome>  (1447) 
too moved

>  <fragmenstein_mode>  (1447) 
expansion

>  <fragmenstein_error>  (1447) 


$$$$
C12668-P64
     RDKit          3D

 39 40  0  0  0  0  0  0  0  0999 V2000
    0.3441  -10.3877   21.8424 C   0  0  0  0  0  0  0  0  0  0  0  0
    1.4393  -11.6722   22.8343 C   0  0  0  0  0  0  0  0  0  0  0  0
    3.2361  -12.3688   22.8287 C   0  0  0  0  0  0  0  0  0  0  0  0
    4.7526  -11.0722   22.6349 C   0  0  0  0  0  0  0  0  0  0  0  0
    6.3643  -11.2000   23.5472 N   0  0  0  0  0  0  0  0  0  0  0  0
    6.9745  -10.3170   24.6272 C   0  0  0  0  0  0  0  0  0  0  0  0
    6.5196   -9.3612   25.2145 O   0  0  0  0  0  0  0  0  0  0  0  0
    8.3788  -10.6154   24.9310 C   0  0  0  0  0  0  0  0  0  0  0  0
    9.3372   -9.5942   25.2197 C   0  0  0  0  0  0  0  0  0  0  0  0
   10.5981  -10.0110   25.0896 N   0  0  0  0  0  0  0  0  0  0  0  0
   10.4593  -11.3210   24.8266 N   0  0  0  0  0  0  0  0  0  0  0  0
    9.1553  -11.7393   24.7558 C   0  0  0  0  0  0  0  0  0  0  0  0
    3.4003  -13.3414   24.3476 N   0  0  0  0  0  0  0  0  0  0  0  0
    4.1552  -14.7433   24.6398 C   0  0  0  0  0  0  0  0  0  0  0  0
    4.7058  -15.5081   23.8821 O   0  0  0  0  0  0  0  0  0  0  0  0
    4.3895  -15.2609   26.2786 C   0  0  0  0  0  0  0  0  0  0  0  0
    4.0317  -16.7699   26.6962 C   0  0  0  0  0  0  0  0  0  0  0  0
    3.3144  -17.2508   27.7928 C   0  0  0  0  0  0  0  0  0  0  0  0
    2.8764  -18.5403   27.5950 N   0  0  0  0  0  0  0  0  0  0  0  0
    3.3714  -18.8902   26.4310 C   0  0  0  0  0  0  0  0  0  0  0  0
    4.1346  -17.8868   25.8827 N   0  0  0  0  0  0  0  0  0  0  0  0
   -0.5346  -10.7570   21.3056 H   0  0  0  0  0  0  0  0  0  0  0  0
    0.9250   -9.6831   21.2354 H   0  0  0  0  0  0  0  0  0  0  0  0
   -0.2083   -9.7307   22.5298 H   0  0  0  0  0  0  0  0  0  0  0  0
    0.4467  -12.0760   22.8036 H   0  0  0  0  0  0  0  0  0  0  0  0
    1.5304  -11.7030   23.9160 H   0  0  0  0  0  0  0  0  0  0  0  0
    3.3814  -12.9723   21.9346 H   0  0  0  0  0  0  0  0  0  0  0  0
    5.0767  -11.1835   21.5972 H   0  0  0  0  0  0  0  0  0  0  0  0
    4.5607  -10.1139   23.0555 H   0  0  0  0  0  0  0  0  0  0  0  0
    7.0564  -11.8542   23.2240 H   0  0  0  0  0  0  0  0  0  0  0  0
    9.1435   -8.5482   25.4289 H   0  0  0  0  0  0  0  0  0  0  0  0
   11.2958  -11.8798   24.6925 H   0  0  0  0  0  0  0  0  0  0  0  0
    8.9258  -12.7588   24.4803 H   0  0  0  0  0  0  0  0  0  0  0  0
    2.9832  -13.0051   25.1869 H   0  0  0  0  0  0  0  0  0  0  0  0
    3.9463  -14.5554   26.9860 H   0  0  0  0  0  0  0  0  0  0  0  0
    5.4736  -15.1732   26.4324 H   0  0  0  0  0  0  0  0  0  0  0  0
    3.0057  -16.6926   28.6677 H   0  0  0  0  0  0  0  0  0  0  0  0
    3.2214  -19.8358   25.9269 H   0  0  0  0  0  0  0  0  0  0  0  0
    4.5465  -17.9025   24.9585 H   0  0  0  0  0  0  0  0  0  0  0  0
  1  2  1  0
  2  3  1  0
  3  4  1  0
  4  5  1  0
  5  6  1  0
  6  7  2  0
  6  8  1  0
  8  9  1  0
  9 10  2  0
 10 11  1  0
 11 12  1  0
  3 13  1  0
 13 14  1  0
 14 15  2  0
 14 16  1  0
 16 17  1  0
 17 18  2  0
 18 19  1  0
 19 20  2  0
 20 21  1  0
 12  8  2  0
 21 17  1  0
  1 22  1  0
  1 23  1  0
  1 24  1  0
  2 25  1  0
  2 26  1  0
  3 27  1  0
  4 28  1  0
  4 29  1  0
  5 30  1  0
  9 31  1  0
 11 32  1  0
 12 33  1  0
 13 34  1  0
 16 35  1  0
 16 36  1  0
 18 37  1  0
 20 38  1  0
 21 39  1  0
M  END
>  <Energy>  (1448) 
326.74056288460326

>  <compound_id>  (1448) 
12668

>  <target_id>  (1448) 
1

>  <reference_id>  (1448) 
64

>  <inspiration_ids>  (1448) 
[64, 81]

>  <energy_score>  (1448) 
290.8934538212079

>  <distance_score>  (1448) 
15.670660776534739

>  <path>  (1448) 
/opt/xchem-fragalysis-2/maxwin/BulkDock/SCRATCH/511022/C12668-P64/C12668-P64.minimised.mol

>  <scratch_subdir>  (1448) 
/opt/xchem-fragalysis-2/maxwin/BulkDock/SCRATCH/511022/C12668-P64

>  <fragmenstein_runtime>  (1448) 
36.65705394744873

>  <fragmenstein_outcome>  (1448) 
too moved

>  <fragmenstein_mode>  (1448) 
expansion

>  <fragmenstein_error>  (1448) 


$$$$
C12668-P81
     RDKit          3D

 39 40  0  0  0  0  0  0  0  0999 V2000
   -2.6319   -9.8751   21.2527 C   0  0  0  0  0  0  0  0  0  0  0  0
   -1.6205  -11.0253   21.0635 C   0  0  0  0  0  0  0  0  0  0  0  0
   -0.1450  -10.9881   22.1766 C   0  0  0  0  0  0  0  0  0  0  0  0
   -0.0015   -9.4693   20.7527 C   0  0  0  0  0  0  0  0  0  0  0  0
    1.2095   -8.2880   19.8231 N   0  0  0  0  0  0  0  0  0  0  0  0
    2.5367   -8.6075   18.5047 C   0  0  0  0  0  0  0  0  0  0  0  0
    2.6690   -9.6811   17.9960 O   0  0  0  0  0  0  0  0  0  0  0  0
    4.0432   -7.3979   17.9250 C   0  0  0  0  0  0  0  0  0  0  0  0
    5.3416   -7.0611   18.4705 C   0  0  0  0  0  0  0  0  0  0  0  0
    6.2102   -6.1220   18.0714 N   0  0  0  0  0  0  0  0  0  0  0  0
    5.7069   -5.7250   16.9515 N   0  0  0  0  0  0  0  0  0  0  0  0
    4.5719   -6.3971   16.7077 C   0  0  0  0  0  0  0  0  0  0  0  0
   -0.3149  -12.9767   22.7505 N   0  0  0  0  0  0  0  0  0  0  0  0
   -1.0777  -13.7454   24.3148 C   0  0  0  0  0  0  0  0  0  0  0  0
   -1.5058  -13.1347   25.3240 O   0  0  0  0  0  0  0  0  0  0  0  0
   -1.4111  -15.1628   24.4226 C   0  0  0  0  0  0  0  0  0  0  0  0
   -3.1262  -15.7999   24.7769 C   0  0  0  0  0  0  0  0  0  0  0  0
   -3.5085  -16.9250   25.5308 C   0  0  0  0  0  0  0  0  0  0  0  0
   -4.8616  -17.1450   25.4839 N   0  0  0  0  0  0  0  0  0  0  0  0
   -5.3380  -16.1226   24.8196 C   0  0  0  0  0  0  0  0  0  0  0  0
   -4.3445  -15.2608   24.4215 N   0  0  0  0  0  0  0  0  0  0  0  0
   -2.3053   -9.1266   21.9806 H   0  0  0  0  0  0  0  0  0  0  0  0
   -2.8229   -9.3882   20.2904 H   0  0  0  0  0  0  0  0  0  0  0  0
   -3.5960  -10.2291   21.5687 H   0  0  0  0  0  0  0  0  0  0  0  0
   -1.3451  -11.0608   20.0134 H   0  0  0  0  0  0  0  0  0  0  0  0
   -2.1664  -11.9444   20.9535 H   0  0  0  0  0  0  0  0  0  0  0  0
    0.8396  -11.1940   21.9530 H   0  0  0  0  0  0  0  0  0  0  0  0
    0.0665   -8.7677   21.6095 H   0  0  0  0  0  0  0  0  0  0  0  0
   -0.9194   -9.0637   20.3283 H   0  0  0  0  0  0  0  0  0  0  0  0
    1.2058   -7.2944   20.0627 H   0  0  0  0  0  0  0  0  0  0  0  0
    5.6817   -7.6191   19.2975 H   0  0  0  0  0  0  0  0  0  0  0  0
    6.2052   -5.0681   16.3594 H   0  0  0  0  0  0  0  0  0  0  0  0
    4.0939   -6.1851   15.7450 H   0  0  0  0  0  0  0  0  0  0  0  0
   -0.1233  -13.7052   22.0751 H   0  0  0  0  0  0  0  0  0  0  0  0
   -1.5546  -15.0728   23.4042 H   0  0  0  0  0  0  0  0  0  0  0  0
   -1.9834  -14.8308   25.3415 H   0  0  0  0  0  0  0  0  0  0  0  0
   -2.8629  -17.6150   26.0603 H   0  0  0  0  0  0  0  0  0  0  0  0
   -6.3803  -15.9302   24.6046 H   0  0  0  0  0  0  0  0  0  0  0  0
   -4.5177  -14.3947   23.9380 H   0  0  0  0  0  0  0  0  0  0  0  0
  1  2  1  0
  2  3  1  0
  3  4  1  0
  4  5  1  0
  5  6  1  0
  6  7  2  0
  6  8  1  0
  8  9  1  0
  9 10  2  0
 10 11  1  0
 11 12  1  0
  3 13  1  0
 13 14  1  0
 14 15  2  0
 14 16  1  0
 16 17  1  0
 17 18  2  0
 18 19  1  0
 19 20  2  0
 20 21  1  0
 12  8  2  0
 21 17  1  0
  1 22  1  0
  1 23  1  0
  1 24  1  0
  2 25  1  0
  2 26  1  0
  3 27  1  0
  4 28  1  0
  4 29  1  0
  5 30  1  0
  9 31  1  0
 11 32  1  0
 12 33  1  0
 13 34  1  0
 16 35  1  0
 16 36  1  0
 18 37  1  0
 20 38  1  0
 21 39  1  0
M  END
>  <Energy>  (1449) 
860.88141182784102

>  <compound_id>  (1449) 
12668

>  <target_id>  (1449) 
1

>  <reference_id>  (1449) 
81

>  <inspiration_ids>  (1449) 
[64, 81]

>  <energy_score>  (1449) 
825.0343027644376

>  <distance_score>  (1449) 
11.388025872855877

>  <path>  (1449) 
/opt/xchem-fragalysis-2/maxwin/BulkDock/SCRATCH/511022/C12668-P81/C12668-P81.minimised.mol

>  <scratch_subdir>  (1449) 
/opt/xchem-fragalysis-2/maxwin/BulkDock/SCRATCH/511022/C12668-P81

>  <fragmenstein_runtime>  (1449) 
35.588666915893555

>  <fragmenstein_outcome>  (1449) 
too moved

>  <fragmenstein_mode>  (1449) 
expansion

>  <fragmenstein_error>  (1449) 


$$$$
C12669-P64
     RDKit          3D

 42 43  0  0  0  0  0  0  0  0999 V2000
   -8.6895  -12.5658   19.0978 C   0  0  0  0  0  0  0  0  0  0  0  0
   -7.3779  -12.7129   18.3388 C   0  0  0  0  0  0  0  0  0  0  0  0
   -6.2330  -13.3058   19.1825 C   0  0  0  0  0  0  0  0  0  0  0  0
   -4.8911  -13.2264   18.3785 C   0  0  0  0  0  0  0  0  0  0  0  0
   -4.3454  -11.9046   18.0570 N   0  0  0  0  0  0  0  0  0  0  0  0
   -3.3011  -11.1372   18.6835 C   0  0  0  0  0  0  0  0  0  0  0  0
   -2.6679  -11.3487   19.6726 O   0  0  0  0  0  0  0  0  0  0  0  0
   -2.8974   -9.9303   17.8895 C   0  0  0  0  0  0  0  0  0  0  0  0
   -1.9999   -8.9019   18.3196 C   0  0  0  0  0  0  0  0  0  0  0  0
   -1.7280   -7.9832   17.3836 N   0  0  0  0  0  0  0  0  0  0  0  0
   -2.4509   -8.3884   16.3414 N   0  0  0  0  0  0  0  0  0  0  0  0
   -3.1555   -9.5434   16.5824 C   0  0  0  0  0  0  0  0  0  0  0  0
   -6.5487  -14.7112   19.5816 N   0  0  0  0  0  0  0  0  0  0  0  0
   -7.3466  -15.2381   20.6961 C   0  0  0  0  0  0  0  0  0  0  0  0
   -7.8780  -14.6737   21.6091 O   0  0  0  0  0  0  0  0  0  0  0  0
   -7.3933  -16.8031   20.6001 C   0  0  0  0  0  0  0  0  0  0  0  0
   -8.4230  -17.5465   21.4499 C   0  0  0  0  0  0  0  0  0  0  0  0
   -9.1603  -17.2163   22.5775 C   0  0  0  0  0  0  0  0  0  0  0  0
  -10.0100  -18.2354   22.9574 N   0  0  0  0  0  0  0  0  0  0  0  0
   -9.7965  -19.1947   22.0879 C   0  0  0  0  0  0  0  0  0  0  0  0
   -8.8158  -18.8530   21.1991 N   0  0  0  0  0  0  0  0  0  0  0  0
   -8.3149  -19.7238   20.1625 C   0  0  0  0  0  0  0  0  0  0  0  0
   -8.5467  -12.0094   20.0294 H   0  0  0  0  0  0  0  0  0  0  0  0
   -9.4159  -12.0206   18.4863 H   0  0  0  0  0  0  0  0  0  0  0  0
   -9.1279  -13.5392   19.3339 H   0  0  0  0  0  0  0  0  0  0  0  0
   -7.5502  -13.3339   17.4511 H   0  0  0  0  0  0  0  0  0  0  0  0
   -7.0882  -11.7176   17.9814 H   0  0  0  0  0  0  0  0  0  0  0  0
   -6.1425  -12.7210   20.1047 H   0  0  0  0  0  0  0  0  0  0  0  0
   -4.1136  -13.7515   18.9449 H   0  0  0  0  0  0  0  0  0  0  0  0
   -5.0022  -13.7564   17.4254 H   0  0  0  0  0  0  0  0  0  0  0  0
   -4.7147  -11.3815   17.2755 H   0  0  0  0  0  0  0  0  0  0  0  0
   -1.5214   -8.8326   19.2895 H   0  0  0  0  0  0  0  0  0  0  0  0
   -2.4254   -7.8294   15.4944 H   0  0  0  0  0  0  0  0  0  0  0  0
   -3.7572   -9.9784   15.7986 H   0  0  0  0  0  0  0  0  0  0  0  0
   -6.1851  -15.4862   19.0378 H   0  0  0  0  0  0  0  0  0  0  0  0
   -7.5781  -17.0579   19.5490 H   0  0  0  0  0  0  0  0  0  0  0  0
   -6.3961  -17.1701   20.8726 H   0  0  0  0  0  0  0  0  0  0  0  0
   -9.1390  -16.2817   23.1268 H   0  0  0  0  0  0  0  0  0  0  0  0
  -10.2997  -20.1543   22.0679 H   0  0  0  0  0  0  0  0  0  0  0  0
   -8.6775  -20.7412   20.3314 H   0  0  0  0  0  0  0  0  0  0  0  0
   -8.6749  -19.3534   19.1996 H   0  0  0  0  0  0  0  0  0  0  0  0
   -7.2226  -19.7154   20.1964 H   0  0  0  0  0  0  0  0  0  0  0  0
  1  2  1  0
  2  3  1  0
  3  4  1  0
  4  5  1  0
  5  6  1  0
  6  7  2  0
  6  8  1  0
  8  9  1  0
  9 10  2  0
 10 11  1  0
 11 12  1  0
  3 13  1  0
 13 14  1  0
 14 15  2  0
 14 16  1  0
 16 17  1  0
 17 18  2  0
 18 19  1  0
 19 20  2  0
 20 21  1  0
 21 22  1  0
 12  8  2  0
 21 17  1  0
  1 23  1  0
  1 24  1  0
  1 25  1  0
  2 26  1  0
  2 27  1  0
  3 28  1  0
  4 29  1  0
  4 30  1  0
  5 31  1  0
  9 32  1  0
 11 33  1  0
 12 34  1  0
 13 35  1  0
 16 36  1  0
 16 37  1  0
 18 38  1  0
 20 39  1  0
 22 40  1  0
 22 41  1  0
 22 42  1  0
M  END
>  <Energy>  (1450) 
33.040595746163163

>  <compound_id>  (1450) 
12669

>  <target_id>  (1450) 
1

>  <reference_id>  (1450) 
64

>  <inspiration_ids>  (1450) 
[64, 81]

>  <energy_score>  (1450) 
-5.8119837762284305

>  <distance_score>  (1450) 
13.920386033769361

>  <path>  (1450) 
/opt/xchem-fragalysis-2/maxwin/BulkDock/SCRATCH/511022/C12669-P64/C12669-P64.minimised.mol

>  <scratch_subdir>  (1450) 
/opt/xchem-fragalysis-2/maxwin/BulkDock/SCRATCH/511022/C12669-P64

>  <fragmenstein_runtime>  (1450) 
41.664170265197754

>  <fragmenstein_outcome>  (1450) 
too moved

>  <fragmenstein_mode>  (1450) 
expansion

>  <fragmenstein_error>  (1450) 


$$$$
C12669-P81
     RDKit          3D

 42 43  0  0  0  0  0  0  0  0999 V2000
   -5.7129  -14.8838   17.0355 C   0  0  0  0  0  0  0  0  0  0  0  0
   -5.8756  -13.3978   17.3314 C   0  0  0  0  0  0  0  0  0  0  0  0
   -5.8534  -13.0691   18.8339 C   0  0  0  0  0  0  0  0  0  0  0  0
   -5.8936  -11.5193   19.0895 C   0  0  0  0  0  0  0  0  0  0  0  0
   -4.7669  -10.6130   18.4618 N   0  0  0  0  0  0  0  0  0  0  0  0
   -4.4853  -10.0730   17.5532 C   0  0  0  0  0  0  0  0  0  0  0  0
   -5.7885  -10.2515   16.6299 O   0  0  0  0  0  0  0  0  0  0  0  0
   -3.3457   -9.2639   17.1926 C   0  0  0  0  0  0  0  0  0  0  0  0
   -2.2397   -8.8056   17.9489 C   0  0  0  0  0  0  0  0  0  0  0  0
   -1.4457   -7.9676   17.2703 N   0  0  0  0  0  0  0  0  0  0  0  0
   -2.0150   -7.8782   16.0692 N   0  0  0  0  0  0  0  0  0  0  0  0
   -3.1307   -8.6565   15.9615 C   0  0  0  0  0  0  0  0  0  0  0  0
   -6.9880  -13.7513   19.5243 N   0  0  0  0  0  0  0  0  0  0  0  0
   -7.0526  -15.0370   20.2227 C   0  0  0  0  0  0  0  0  0  0  0  0
   -6.1905  -15.8267   20.4831 O   0  0  0  0  0  0  0  0  0  0  0  0
   -8.5263  -15.3156   20.6461 C   0  0  0  0  0  0  0  0  0  0  0  0
   -8.8162  -16.5960   21.4214 C   0  0  0  0  0  0  0  0  0  0  0  0
   -9.4202  -16.7727   22.6591 C   0  0  0  0  0  0  0  0  0  0  0  0
   -9.7025  -18.0928   22.9108 N   0  0  0  0  0  0  0  0  0  0  0  0
   -9.2354  -18.7396   21.8674 C   0  0  0  0  0  0  0  0  0  0  0  0
   -8.6643  -17.8877   20.9585 N   0  0  0  0  0  0  0  0  0  0  0  0
   -8.0616  -18.3060   19.7159 C   0  0  0  0  0  0  0  0  0  0  0  0
   -6.5709  -15.4612   17.3921 H   0  0  0  0  0  0  0  0  0  0  0  0
   -5.6345  -15.0439   15.9553 H   0  0  0  0  0  0  0  0  0  0  0  0
   -4.8066  -15.2812   17.5032 H   0  0  0  0  0  0  0  0  0  0  0  0
   -6.8131  -13.0476   16.8832 H   0  0  0  0  0  0  0  0  0  0  0  0
   -5.0575  -12.8702   16.8290 H   0  0  0  0  0  0  0  0  0  0  0  0
   -4.9252  -13.4698   19.2492 H   0  0  0  0  0  0  0  0  0  0  0  0
   -6.0163  -11.3097   20.1716 H   0  0  0  0  0  0  0  0  0  0  0  0
   -6.8250  -11.1447   18.6412 H   0  0  0  0  0  0  0  0  0  0  0  0
   -4.6042  -11.0133   19.3569 H   0  0  0  0  0  0  0  0  0  0  0  0
   -1.9904   -9.0386   18.9775 H   0  0  0  0  0  0  0  0  0  0  0  0
   -1.5997   -7.2615   15.3775 H   0  0  0  0  0  0  0  0  0  0  0  0
   -3.7157   -8.6768   15.0519 H   0  0  0  0  0  0  0  0  0  0  0  0
   -7.9293  -13.3879   19.4089 H   0  0  0  0  0  0  0  0  0  0  0  0
   -8.8538  -14.4647   21.2572 H   0  0  0  0  0  0  0  0  0  0  0  0
   -9.1388  -15.3252   19.7357 H   0  0  0  0  0  0  0  0  0  0  0  0
   -9.7156  -16.0010   23.3589 H   0  0  0  0  0  0  0  0  0  0  0  0
   -9.2820  -19.8107   21.7114 H   0  0  0  0  0  0  0  0  0  0  0  0
   -8.2807  -17.5697   18.9395 H   0  0  0  0  0  0  0  0  0  0  0  0
   -6.9840  -18.3946   19.8719 H   0  0  0  0  0  0  0  0  0  0  0  0
   -8.4776  -19.2733   19.4214 H   0  0  0  0  0  0  0  0  0  0  0  0
  1  2  1  0
  2  3  1  0
  3  4  1  0
  4  5  1  0
  5  6  1  0
  6  7  2  0
  6  8  1  0
  8  9  1  0
  9 10  2  0
 10 11  1  0
 11 12  1  0
  3 13  1  0
 13 14  1  0
 14 15  2  0
 14 16  1  0
 16 17  1  0
 17 18  2  0
 18 19  1  0
 19 20  2  0
 20 21  1  0
 21 22  1  0
 12  8  2  0
 21 17  1  0
  1 23  1  0
  1 24  1  0
  1 25  1  0
  2 26  1  0
  2 27  1  0
  3 28  1  0
  4 29  1  0
  4 30  1  0
  5 31  1  0
  9 32  1  0
 11 33  1  0
 12 34  1  0
 13 35  1  0
 16 36  1  0
 16 37  1  0
 18 38  1  0
 20 39  1  0
 22 40  1  0
 22 41  1  0
 22 42  1  0
M  END
>  <Energy>  (1451) 
230.11437878053812

>  <compound_id>  (1451) 
12669

>  <target_id>  (1451) 
1

>  <reference_id>  (1451) 
81

>  <inspiration_ids>  (1451) 
[64, 81]

>  <energy_score>  (1451) 
191.26179925814643

>  <distance_score>  (1451) 
14.018895675648325

>  <path>  (1451) 
/opt/xchem-fragalysis-2/maxwin/BulkDock/SCRATCH/511022/C12669-P81/C12669-P81.minimised.mol

>  <scratch_subdir>  (1451) 
/opt/xchem-fragalysis-2/maxwin/BulkDock/SCRATCH/511022/C12669-P81

>  <fragmenstein_runtime>  (1451) 
51.457327127456665

>  <fragmenstein_outcome>  (1451) 
too moved

>  <fragmenstein_mode>  (1451) 
expansion

>  <fragmenstein_error>  (1451) 


$$$$
C12670-P64
     RDKit          3D

 46 47  0  0  0  0  0  0  0  0999 V2000
    3.0846   -9.2401   18.2045 C   0  0  0  0  0  0  0  0  0  0  0  0
    4.7143   -9.4597   19.2623 C   0  0  0  0  0  0  0  0  0  0  0  0
    5.8123  -10.9801   20.4469 N   0  0  0  0  0  0  0  0  0  0  0  0
    4.0289  -11.4170   21.6587 C   0  0  0  0  0  0  0  0  0  0  0  0
    2.6169  -12.4842   23.1442 C   0  0  0  0  0  0  0  0  0  0  0  0
    1.0614  -14.0179   23.4514 N   0  0  0  0  0  0  0  0  0  0  0  0
   -0.6398  -14.1097   24.4954 C   0  0  0  0  0  0  0  0  0  0  0  0
   -1.1528  -13.2705   25.3295 O   0  0  0  0  0  0  0  0  0  0  0  0
   -1.8889  -15.5073   24.2449 C   0  0  0  0  0  0  0  0  0  0  0  0
   -2.6257  -16.8346   25.2358 O   0  0  0  0  0  0  0  0  0  0  0  0
   -2.3263  -18.5845   25.5439 C   0  0  0  0  0  0  0  0  0  0  0  0
   -3.5591  -19.9252   24.6199 C   0  0  0  0  0  0  0  0  0  0  0  0
   -2.9269  -20.7238   23.6150 N   0  0  0  0  0  0  0  0  0  0  0  0
   -3.6047  -21.8969   23.3688 C   0  0  0  0  0  0  0  0  0  0  0  0
   -4.6099  -21.9638   24.2786 C   0  0  0  0  0  0  0  0  0  0  0  0
   -4.6263  -20.7284   24.9652 N   0  0  0  0  0  0  0  0  0  0  0  0
   -5.1274  -20.3565   26.1905 C   0  0  0  0  0  0  0  0  0  0  0  0
    6.4054  -11.7327   19.5722 C   0  0  0  0  0  0  0  0  0  0  0  0
    6.0746  -12.7338   19.1081 O   0  0  0  0  0  0  0  0  0  0  0  0
    8.1117  -10.8313   18.9854 C   0  0  0  0  0  0  0  0  0  0  0  0
    9.7680  -11.4831   18.5368 C   0  0  0  0  0  0  0  0  0  0  0  0
   10.5858  -11.0380   17.5990 N   0  0  0  0  0  0  0  0  0  0  0  0
    9.6544  -10.5259   16.8884 N   0  0  0  0  0  0  0  0  0  0  0  0
    8.4716  -10.4753   17.6057 C   0  0  0  0  0  0  0  0  0  0  0  0
    3.0050   -8.2440   17.8158 H   0  0  0  0  0  0  0  0  0  0  0  0
    2.1791   -9.3015   18.8040 H   0  0  0  0  0  0  0  0  0  0  0  0
    3.1045   -9.9643   17.3914 H   0  0  0  0  0  0  0  0  0  0  0  0
    5.2380   -9.8160   18.3499 H   0  0  0  0  0  0  0  0  0  0  0  0
    5.1762   -8.3991   19.0589 H   0  0  0  0  0  0  0  0  0  0  0  0
    4.6294  -11.0466   22.4825 H   0  0  0  0  0  0  0  0  0  0  0  0
    4.1921  -12.4440   21.2561 H   0  0  0  0  0  0  0  0  0  0  0  0
    3.3161  -13.0836   23.7032 H   0  0  0  0  0  0  0  0  0  0  0  0
    2.1878  -11.7857   23.8017 H   0  0  0  0  0  0  0  0  0  0  0  0
    1.1375  -14.7585   22.8499 H   0  0  0  0  0  0  0  0  0  0  0  0
   -1.0352  -15.8543   24.4657 H   0  0  0  0  0  0  0  0  0  0  0  0
   -2.4636  -14.9851   24.9849 H   0  0  0  0  0  0  0  0  0  0  0  0
   -1.2735  -18.6021   25.7918 H   0  0  0  0  0  0  0  0  0  0  0  0
   -2.4590  -18.5711   26.6229 H   0  0  0  0  0  0  0  0  0  0  0  0
   -3.2601  -22.6224   22.6467 H   0  0  0  0  0  0  0  0  0  0  0  0
   -5.1826  -22.8293   24.5811 H   0  0  0  0  0  0  0  0  0  0  0  0
   -5.6812  -19.5633   25.7515 H   0  0  0  0  0  0  0  0  0  0  0  0
   -5.9090  -20.1220   26.9032 H   0  0  0  0  0  0  0  0  0  0  0  0
   -5.2094  -21.4066   26.5691 H   0  0  0  0  0  0  0  0  0  0  0  0
   10.2526  -12.3667   18.9924 H   0  0  0  0  0  0  0  0  0  0  0  0
    9.8297  -10.3006   15.9126 H   0  0  0  0  0  0  0  0  0  0  0  0
    7.8566  -10.4274   16.7917 H   0  0  0  0  0  0  0  0  0  0  0  0
  1  2  1  0
  2  3  1  0
  3  4  1  0
  4  5  1  0
  5  6  1  0
  6  7  1  0
  7  8  2  0
  7  9  1  0
  9 10  1  0
 10 11  1  0
 11 12  1  0
 12 13  2  0
 13 14  1  0
 14 15  2  0
 15 16  1  0
 16 17  1  0
  3 18  1  0
 18 19  2  0
 18 20  1  0
 20 21  1  0
 21 22  2  0
 22 23  1  0
 23 24  1  0
 16 12  1  0
 24 20  2  0
  1 25  1  0
  1 26  1  0
  1 27  1  0
  2 28  1  0
  2 29  1  0
  4 30  1  0
  4 31  1  0
  5 32  1  0
  5 33  1  0
  6 34  1  0
  9 35  1  0
  9 36  1  0
 11 37  1  0
 11 38  1  0
 14 39  1  0
 15 40  1  0
 17 41  1  0
 17 42  1  0
 17 43  1  0
 21 44  1  0
 23 45  1  0
 24 46  1  0
M  END
